file 40947700 1535626159                                        
version 2
run General-0-20180830-12:49:13-7641
attr configname General
attr datetime 20180830-12:49:13
attr experiment General
attr inifile simulations/PercSource_20.ini
attr iterationvars ""
attr iterationvarsf ""
attr measurement ""
attr network Map
attr processid 7641
attr repetition 0
attr replication #0
attr resultdir results
attr runnumber 0
attr seedset 0
param Map.Modena.**.sendInterval exponential(1)
param Map.Modena.**.serviceTime exponential(0.002)
param Map.Modena.subsampling_database "\"simulations/databases/PercSource_20.db\""

vector 0 "Map.Modena.Viale del MERCATO" Delay ETV
0	598 1278990 24 131114 0.047781647329 121.415389270149 32768 0.015060502062 0.207242873387 2370.7821604297 211.77342988618
0	1279588 1336248 131115 262201 121.416104047167 241.225847426863 32768 0.015015121048 0.209914563663 2365.4008947826 211.16199888434
0	2615836 1336211 262212 393246 241.232221502471 362.468829180315 32768 0.015017716405 0.207523021538 2356.7003344717 210.14141493113
0	3952047 1336281 393248 524316 362.472446658196 483.965340495276 32768 0.015046314553 0.205798157264 2380.1189434677 213.86837747773
0	5288328 1336135 524318 655396 483.966002008746 606.29209531316 32768 0.015014073929 0.212177230342 2365.3010649725 211.90347950905
0	6624463 1336207 655408 786485 606.303627474102 728.197125972484 32768 0.015013168412 0.208439240858 2377.814825373 212.6981874081
0	7960670 1336167 786488 917544 728.197701347869 850.035107311253 32768 0.015022179071 0.206563051635 2362.8984772584 210.8849612346
0	9296837 1348375 917546 1048638 850.038071357227 970.499570041981 32768 0.015044912811 0.210070008345 2372.3539649975 212.34427491237
0	10645212 1393571 1048640 1179675 970.50102112899 1092.06513346484 32768 0.015034173928 0.207349182515 2374.4236334689 212.30339176248
0	12038783 1401814 1179678 1310767 1092.066428560749 1213.174827746569 32768 0.015036898629 0.207187717001 2371.351523463 211.85494725311
0	13440597 1401725 1310772 1441841 1213.176892361682 1334.519780774775 32768 0.015016927827 0.214652841336 2372.7048426874 212.4716580216
0	14842322 1401743 1441842 1572903 1334.520437699208 1456.103777019796 32768 0.015075686786 0.206398687875 2368.6489794768 211.29833278728
0	16244065 1401535 1572916 1703970 1456.115495402736 1578.539028629429 32768 0.01502962879 0.211397362885 2385.1861469605 215.17047356282
0	17645600 1401821 1703982 1835065 1578.550064663159 1699.464149923105 32768 0.015014897985 0.206249356087 2376.0312275154 212.85854320718
0	19047421 1401779 1835066 1966130 1699.465381075365 1820.504384503687 32768 0.015017165521 0.209113728309 2370.7972291421 212.17525778913
0	20449200 1401903 1966133 2097195 1820.508211418978 1942.773901098051 32768 0.01501307059 0.20850104827 2374.3729497682 212.88268421223
0	21851103 1401584 2097196 2228240 1942.774578250882 2063.137063179102 32768 0.015025663298 0.205872895574 2365.7413687971 211.28013734619
0	23252687 1401800 2228244 2359327 2063.139861131579 2185.760721749142 32768 0.015012563387 0.208862904109 2368.0092831412 212.13690447467
0	24654487 1401761 2359328 2490425 2185.761205473128 2308.559187669388 32768 0.015047118828 0.21143067505 2362.4758864406 210.55332370158
0	26056248 1401572 2490433 2621471 2308.562828209443 2429.9731378239 32768 0.015043222295 0.208888944909 2368.9682039566 211.48757713923
0	27457820 1401891 2621473 2752550 2429.974371682291 2552.941625725088 32768 0.01512468945 0.206850966315 2369.3714487184 211.87274786189
0	28859711 1401657 2752555 2883641 2552.94469133521 2675.233479634488 32768 0.015037672666 0.207230545071 2381.0826810719 213.40867467688
0	30261368 1401762 2883644 3014700 2675.237155577153 2795.801814350129 32768 0.015023138209 0.208109912171 2362.9677747381 210.54386930407
0	31663130 1401796 3014709 3145778 2795.805960444138 2917.274515415488 32768 0.015043422541 0.214976800502 2366.887589979 212.30324627656
0	33064926 1401872 3145788 3276852 2917.281456981911 3038.496133355495 32768 0.015051694183 0.207572302227 2374.9160970697 211.99493712574
0	34466798 1401829 3276853 3407930 3038.496218936873 3159.565675903836 32768 0.015015100793 0.210938111794 2363.4804619872 211.508314977
0	35868627 1401887 3407938 3538992 3159.571183584342 3280.768251134832 32768 0.015016832119 0.211281188657 2378.7179385894 212.80334654548
0	37270514 1401768 3538995 3670061 3280.770318175857 3403.760088275567 32768 0.015016379022 0.206782485396 2369.1737064562 211.90177477875
0	38672282 1401857 3670063 3801126 3403.760195266091 3525.077335147377 32768 0.015069919369 0.205816168562 2373.4628515455 212.38929065731
0	40074139 873560 3801130 3882830 3525.083734639124 3599.996126613909 20421 0.015017742611 0.20682600865 1471.7617360951 131.27134571086

