version 2
run Two_examples-0-20180727-18:01:49-18162
attr configname Two_examples
attr datetime 20180727-18:01:49
attr experiment Two_examples
attr inifile simulations/omnetpp.ini
attr iterationvars ""
attr iterationvarsf ""
attr measurement ""
attr network MM1_network
attr processid 18162
attr repetition 0
attr replication #0
attr resultdir results
attr runnumber 0
attr seedset 0
param MM1_network.nApps 2
param MM1_network.MM1_net[0].source.sendInterval exponential(0.1)
param MM1_network.MM1_net[0].queue.serviceTime exponential(1)
param MM1_network.MM1_net[1].source.sendInterval exponential(0.1)
param MM1_network.MM1_net[1].queue.serviceTime exponential(10)

vector 0 MM1_network.MM1_net[0].sink Delay ETV
vector 1 MM1_network.MM1_net[1].sink Delay ETV
0	74	1.939191662532	1.859604212075
0	236	5.784413531674	5.579233005412
0	258	6.196914761596	5.803837829914
0	322	7.917246419313	7.420353557565
0	328	7.983543820795	7.451335045133
0	362	8.816387336861	8.27834009429
0	366	8.957718050422	8.088179579858
0	430	10.217651860531	9.191223778205
0	556	13.269933517415	12.168238023758
0	564	13.422227142669	12.236588363722
0	730	17.560036903179	16.193561197805
0	836	20.281385159092	18.907540918171
0	860	20.915315178486	19.500313137941
0	958	23.263158939915	21.839040796758
0	966	23.388191529838	21.85961213585
0	976	23.529833564633	21.686237177777
0	1008	24.151870483714	22.104184875267
0	1014	24.249038162081	22.040828597928
0	1018	24.336146745339	22.066044235223
0	1056	25.139538508006	22.717782400491
0	1196	29.295509603569	26.86116605511
0	1226	29.825471182841	27.26360486416
0	1294	31.118619041637	28.541279754906
0	1326	31.727683496961	29.073260744383
0	1386	32.921696867556	30.125137646969
0	1436	33.783364359351	30.913022409588
0	1440	33.921951180774	31.040414614948
0	1472	34.786889290203	31.851796152354
0	1504	35.427862835467	32.462041662403
0	1514	35.692955936874	32.706514435607
0	1582	37.642932848721	34.522962328992
0	1602	38.084087659451	34.903208897404
0	1606	38.189020406779	34.993613842003
0	1738	41.094940010435	37.897636588739
0	1770	41.903919705568	38.667439202804
0	1780	42.168701978906	38.836083382235
0	1788	42.466075506814	39.108312716936
0	1828	43.660565450322	40.253946955513
0	1832	43.781396846585	40.086986849648
0	1884	44.778695770752	41.024511166133
0	1908	45.573917972061	41.775181517937
0	1956	46.804636823092	42.948447128294
0	1964	46.965366863659	42.876542062692
0	1976	47.208112301019	43.009396253297
0	1982	47.526953349432	43.222353888561
0	2008	48.040638962696	43.624979757256
0	2048	49.023167305418	44.563167697116
0	2076	49.778379123178	45.280483318448
0	2086	49.938863230536	45.347361269829
0	2154	51.177899737914	46.547086521477
0	2156	51.180606612493	46.545875080415
0	2166	51.438191478834	46.745727515675
0	2190	52.32672019116	47.533669127484
0	2208	52.733133057907	47.620787330026
0	2226	53.21618608217	48.093076843473
0	2258	54.192478105139	48.963586225107
0	2290	54.97201313397	49.725529899395
0	2418	58.011544724104	52.229051454505
0	2436	58.345619807163	52.545813791949
0	2474	59.242305643748	53.330182798381
0	2480	59.676005114149	53.725726684445
0	2578	62.450759735729	56.478593246374
0	2634	63.605734269297	57.334848790757
0	2664	64.156872217612	57.704004847144
0	2756	66.100072773939	59.63710192594
0	2860	68.319368295712	61.481494301755
0	2890	68.876139107152	61.975031453555
0	2906	69.374655439066	62.402289426136
0	2982	70.798786454702	63.450227713322
0	3022	72.070396457021	64.688596691545
0	3024	72.071780769627	64.300823991866
0	3030	72.170380269826	64.345935054489
0	3042	72.553448336911	64.478611943265
0	3060	73.141492148588	64.866331702691
0	3072	73.659521205706	65.135802524111
0	3124	74.816220495405	66.206712249703
0	3126	74.898483060876	66.256440773621
0	3202	76.602414665294	67.922016356629
0	3222	77.127175109368	68.445836725637
0	3236	77.560941298875	68.769518324135
0	3308	78.664266601575	69.688110861735
0	3318	78.835318420616	69.824997264073
0	3326	78.958234208767	69.917161279848
0	3376	79.972860963032	70.911552990256
0	3466	82.240851353868	73.128823368766
0	3546	84.308813669025	75.108472779727
0	3552	84.461389817165	75.259017681987
0	3566	84.912199627794	75.691802267418
0	3602	85.751172910723	76.354201443106
0	3616	85.988738453654	76.507458682822
0	3670	87.34056053972	77.726404981513
0	3680	87.718274245258	78.047328271703
0	3718	88.549917197963	78.850369127157
0	3720	88.593789875915	78.75313936418
0	3740	89.008936270403	79.082446461885
0	3846	91.70153613807	81.685387242473
0	3874	92.315816416687	82.214745439934
0	3912	93.643139389175	83.44020253942
0	3940	94.366731157271	83.941643617669
0	3992	95.359300275117	84.746866747529
0	4092	97.641650840103	86.90899345579
0	4212	100.316410233963	89.571400184914
0	4246	100.918618528013	90.138306465637
0	4248	100.930038614557	90.004044696325
0	4280	101.728667444994	90.7496012771
0	4282	101.757048393773	90.727480351104
0	4298	102.083229191296	90.84071120902
0	4308	102.390637341456	90.934636314182
0	4348	103.701742805117	92.127803484479
0	4362	103.991596240708	92.328870779026
0	4412	105.397689757774	93.627180807678
0	4476	106.883629441276	95.03693371405
0	4642	111.068279751746	99.195378300352
0	4668	111.623409796936	99.647228644477
0	4692	112.074747063584	100.0483348313
0	4728	113.292026572987	101.21047474169
0	4784	114.803470330834	102.62547314299
0	4854	116.305749738709	104.06334208003
0	4876	117.003815153807	104.72551477354
0	4894	117.726313822477	105.32210909049
0	4902	118.006781459939	105.56831676548
0	4988	119.423149787035	106.888447587
0	4992	119.684911496704	107.09421318966
0	4996	119.74409969447	106.94265662693
0	5076	122.709169058526	109.81835308315
0	5190	125.261419928739	112.36718361153
0	5192	125.367039851739	112.36690259599
0	5196	125.64239287913	112.53667066252
0	5244	126.808629827487	113.66419460166
0	5286	127.653585070415	114.45268879448
0	5292	128.072293293874	114.84638886844
0	5300	128.302334485197	114.84956666049
0	5348	129.359366389349	115.87644197332
0	5464	131.989877424359	118.34286325054
0	5532	133.585870446669	119.86184858689
0	5570	134.221970890763	120.43854168116
0	5696	137.595580696722	123.80166330355
0	5744	139.02386067747	125.18650871871
0	5752	139.30675731544	125.34414460419
0	5858	141.967601024954	127.94164205193
0	5870	142.353019244649	127.65052121963
0	5956	144.204358660298	129.40626399289
0	6114	148.576074895032	133.62699788206
0	6120	148.687112267105	133.53783660458
0	6218	151.358980496045	136.15670454571
0	6220	151.420598396775	136.20324334542
0	6390	155.267512124846	139.99787007048
0	6396	155.426019979668	140.03683406867
0	6410	155.87329936439	140.43738619675
0	6602	160.545859506481	145.04951643166
0	6608	160.765906734605	145.21507794697
0	6610	160.787813886384	145.10895167837
0	6646	161.901610445197	146.1772570527
0	6674	162.461643428503	146.36629397682
0	6754	164.366785276195	148.22681054246
0	6958	168.437011775733	152.00857586679
0	7056	170.236317949693	153.78905254322
0	7064	170.534913627302	154.04618696657
0	7170	173.30895326597	156.74661349524
0	7204	174.29715822559	157.72923144957
0	7242	175.24337102303	158.6531303262
0	7340	178.366067777899	161.75604413032
0	7346	178.429538753831	161.66167383404
0	7466	180.827454358074	164.01722372815
0	7586	183.929973565341	166.83128850657
0	7590	183.956647502342	166.7642485718
0	7640	185.225617287633	167.94242195436
0	7708	186.741428253462	169.45499723973
0	7760	187.934389439399	170.49487530304
0	7796	188.622508983841	171.1778265569
0	7902	191.310064123284	173.77928933267
0	7948	192.590286553114	175.03234495547
0	7980	193.359139730747	175.3132848443
0	7994	193.52811856531	175.39312582118
0	8084	195.196873848834	176.93090256756
0	8088	195.318681081715	176.71891636706
0	8108	195.662244450752	176.97818185855
0	8168	197.154513798643	178.33591646312
0	8178	197.409900264762	178.53113503059
0	8214	198.570760471645	179.34054736942
0	8216	198.570834171313	179.12775405963
0	8294	200.04254000329	180.55201826258
0	8316	200.42453817925	180.83787248138
0	8324	200.579151071107	180.97268859971
0	8350	201.28477914907	181.67581784234
0	8378	201.739975083649	181.93817776323
0	8412	202.614975083349	182.69942391237
0	8426	203.052980557944	183.07697126514
0	8458	203.5881638183	183.53524254538
0	8504	204.689681720192	184.54335441401
0	8522	205.255127387023	184.98337975383
0	8576	206.486385510668	185.75067262484
0	8610	207.503102015355	186.75262952624
0	8614	207.510409666008	186.75785045503
0	8618	207.54438772823	186.7657933761
0	8654	208.436668806771	187.44471812589
0	8718	210.287763462946	189.19202777452
0	8720	210.30718286542	189.03363284331
0	8740	210.679589472232	189.40603391493
0	8754	210.892071982865	189.41243430148
0	8878	214.013646612882	192.31743256341
0	8902	214.593010403791	192.59147788736
0	8924	215.348457255424	193.05247671125
0	8928	215.509064565695	193.18378887567
0	8990	217.2286837485	194.86576512332
0	9028	218.389246005758	196.00233502864
0	9144	221.716067373216	199.01344684195
0	9156	222.094001062267	199.36812802917
0	9196	222.987519524519	200.24495902729
0	9206	223.205413172656	200.40756883837
0	9230	223.754299848471	200.90958786658
0	9252	224.454527669075	201.50589512353
0	9268	224.949201804612	201.97637729459
0	9296	225.730616304629	202.73715599525
0	9310	225.92637558941	202.84453671443
0	9332	226.247968047203	202.96672525209
0	9334	226.356726832385	202.96313798732
0	9360	227.204185401981	203.79137041283
0	9462	229.861277704508	206.32656278084
0	9464	230.125516408399	206.50746366066
0	9534	231.542243766166	207.90394514206
0	9560	231.991349271917	208.33012621529
0	9586	232.450804507987	208.77393387432
0	9644	233.792478218971	210.09758015535
0	9650	233.898621358591	210.13676923588
0	9686	234.421091854713	210.64590566968
0	9760	236.667036850204	212.76380822977
0	9770	237.071147186945	213.16482593736
0	9776	237.233597168243	213.18232044101
0	9830	238.326000994581	214.13728996591
0	9884	239.706932618226	215.28417239349
0	9928	240.506593622457	215.99601188984
0	9948	241.050750586312	216.53550007934
0	9966	241.489786880622	216.64768673356
0	9984	241.963686376305	216.8563303777
0	10006	242.399159410881	217.13802054082
0	10052	243.403803631711	218.05437670716
0	10142	245.6749905836	220.25908288409
0	10168	246.300650686271	220.50534060845
0	10204	247.232491356154	221.34392009281
0	10220	247.695121059843	221.78190821428
0	10310	249.962745652775	223.98880487835
0	10376	251.322749580014	225.3224510943
0	10426	252.633453347547	226.4220659844
0	10458	253.342820021748	226.83321259105
0	10464	253.440085816431	226.80475468618
0	10566	256.271835090987	229.56991971207
0	10596	256.765781357311	229.96431961406
0	10618	257.56364536718	230.55480747761
0	10630	257.938430082948	230.74058202357
0	10682	258.99401982196	231.64774751432
0	10702	259.588006232599	232.19908034375
0	10718	260.080420103962	232.49321932466
0	10854	263.136683869316	235.39787619703
0	10868	263.417708431077	235.25871481616
0	10892	264.153396322816	235.92560836006
0	10980	266.125453946532	237.89726035164
0	10990	266.382548958791	238.05233665511
0	11386	276.61503108296	248.27009627554
0	11424	277.788324506586	249.38748893217
0	11486	279.007113915097	250.57091868316
0	11514	279.409985605106	250.95273704434
0	11556	280.412066609392	251.90354658437
0	11588	281.504777647752	252.92465309093
0	11606	282.042268168689	253.45184677549
0	11654	283.087723709231	254.44519443393
0	11656	283.113257097353	254.27253878794
0	11680	283.975228973026	255.05029703333
0	11684	284.13568898385	254.84986294365
0	11692	284.253707284651	254.73084248639
0	11712	284.545339968572	254.98195688208
0	11748	285.622438847096	256.05059781143
0	11802	286.997198334725	257.38942790854
0	11828	287.661096731215	257.90406308862
0	11988	291.196303264092	261.42505707035
0	12086	293.187790049721	263.37719361487
0	12126	294.193220243359	264.37713307125
0	12136	294.441430854265	264.31985770426
0	12194	295.603749184779	265.44585181288
0	12208	295.903529364488	265.53119344614
0	12292	298.150084425879	267.61145192946
0	12408	300.9265641296	270.24844472406
0	12420	301.354361285194	270.4792361231
0	12454	302.105317064559	271.1003473389
0	12470	302.304792191281	271.29412581238
0	12486	302.62471252316	271.54932867385
0	12522	303.474824666956	272.33251053045
0	12582	304.850604347989	273.6339318923
0	12664	306.696829122373	275.42181428958
0	12678	307.196366411425	275.8024019535
0	12698	307.57043536333	276.14313057157
0	12736	308.191124945077	276.70700310494
0	12768	308.840597514009	277.30868387512
0	12864	310.903934753458	279.35203556078
0	12882	311.120572382425	279.49747238318
0	12968	313.390634589318	281.61216003987
0	13054	315.744172435614	283.94255578897
0	13172	318.86279690539	286.87326841533
0	13242	320.6197391375	288.51584158538
0	13372	323.946783322408	291.8232395817
0	13380	324.126361059155	291.99557540743
0	13400	324.578080315704	292.35871859938
0	13420	324.920503921932	292.65480320285
0	13458	325.805190645334	293.52516462412
0	13496	327.25531536031	294.95334252301
0	13516	327.64283947038	295.18982047295
0	13558	328.93609727247	296.22383341416
0	13576	329.240150654043	296.46039169837
0	13602	329.869908858939	297.01699536936
0	13632	330.558333524142	297.66877490538
0	13636	330.663397148075	297.70681534165
0	13644	330.869171262099	297.85904902057
0	13688	331.677053341916	298.34645021742
0	13692	331.698757595597	298.31187195092
0	13834	334.665323749559	301.19714826876
0	13856	335.365452918713	301.87985792188
0	13864	335.49604759272	301.99492403734
0	13916	336.932776865569	303.31727377227
0	13928	337.279414278084	303.63139409774
0	13958	338.228039086748	304.50253466845
0	14026	339.979724163877	306.2383185439
0	14080	341.416187417816	307.36149884889
0	14112	341.903854604612	307.83948628845
0	14152	342.578925448688	308.45350884803
0	14236	344.216031141274	309.87687237157
0	14246	344.42034996562	310.07252949647
0	14302	345.943971771787	311.43501810273
0	14352	346.895891367974	312.17727407156
0	14394	348.050620808973	313.27643762125
0	14404	348.348308069309	313.45699851209
0	14410	348.49699254409	313.51888598867
0	14430	349.116539487499	314.01246881501
0	14474	349.95169499406	314.84488011153
0	14480	350.00569881537	314.79780701653
0	14564	351.760336073619	316.52499792258
0	14584	352.424388932798	317.0433947606
0	14590	352.46595086131	317.04809839515
0	14622	353.273153881607	317.53547591777
0	14648	353.823122322139	318.00384250191
0	14752	356.05201592109	320.17163034473
0	14768	356.446501857104	320.55586109144
0	14794	356.98123020112	320.78719517822
0	14820	357.842314977949	321.47637302387
0	14828	358.01799863311	321.41253870009
0	14872	358.672144830779	321.89766140229
0	14904	359.070680172237	322.28731350548
0	14918	359.255706450208	322.45497412713
0	14920	359.315516245391	322.50486176966
0	14948	359.926898161163	323.01711573486
0	15042	362.784666521851	325.82406215014
0	15052	363.203912973798	326.23683203281
0	15072	363.629361159746	326.38621977319
0	15144	365.531148744649	328.23283699683
0	15148	365.603262535203	328.27501794915
0	15152	365.617532601173	328.10021509967
0	15186	366.562636632089	329.04193194507
0	15212	367.189033915612	329.63165871321
0	15244	368.08546437445	330.20871298478
0	15288	368.823382451318	330.89533836246
0	15322	369.7169333079	331.71204296131
0	15342	370.255416607979	331.98560743516
0	15396	371.565665446306	333.28620214559
0	15434	372.170927831283	333.8309211524
0	15474	372.856716871358	334.51095090079
0	15508	373.731961474733	335.34663894413
0	15540	374.526927230613	336.13255395299
0	15608	375.790962654568	337.37009588319
0	15628	376.14971496002	337.70177574956
0	15696	377.601719706268	339.05846824198
0	15840	380.5950812691	342.04846641272
0	15848	380.728261687356	342.10775482899
0	15876	381.154931112815	342.53285134207
0	15894	381.911671765646	343.21762750513
0	16038	384.921621127119	346.22052667177
0	16046	385.15380812768	346.37405776314
0	16116	387.153631694848	348.34485398879
0	16142	387.554832250714	348.65926835767
0	16162	387.822513567928	348.91290210319
0	16178	388.132637067362	349.17582879385
0	16196	388.409789225796	349.45177002778
0	16220	389.168934248725	350.14337946369
0	16248	390.060385571885	350.93847151722
0	16262	390.438485554907	351.28851390762
0	16360	392.769486162406	353.25355830327
0	16404	393.429759054075	353.90915770477
0	16510	396.101575728313	356.52837129943
0	16568	397.382661337226	357.77234073626
0	16622	398.420637586785	358.79252931004
0	16644	398.725176328867	358.91897458463
0	16706	400.188724801636	360.28070129952
0	16712	400.523040246501	360.45049840168
0	16798	402.475628685281	361.94830445527
0	16820	402.868482151664	362.33385275594
0	16852	403.786837125178	363.13714147016
0	16874	404.188520325987	363.49090340152
0	16938	405.637789697977	364.83967944261
0	17032	408.02186300328	366.96218865467
0	17062	408.88276384022	367.76790927944
0	17230	412.457344502643	371.28665726294
0	17250	412.936807223902	371.59320802043
0	17330	415.092239760192	373.69505067719
0	17372	416.145810170276	374.68935534548
0	17470	418.439553239062	376.63603390621
0	17476	418.483232429627	376.62904077538
0	17488	418.59427792539	376.73537634404
0	17490	418.633491330221	376.64038777475
0	17496	418.729637650887	376.693683335
0	17508	419.029553483604	376.82487733884
0	17578	420.51620893447	377.88823121007
0	17606	421.207721119996	378.34440991879
0	17738	423.7403155664	380.84182762666
0	17740	423.764294865528	380.85290307547
0	17742	423.868402579541	380.47403876468
0	17796	425.174551743754	381.75360627399
0	17812	425.691534692078	382.22625578272
0	17826	426.066738482739	382.48441600038
0	17888	427.435323436355	383.80434904002
0	17946	428.700590603939	384.93841989949
0	18006	430.034048986508	386.05840804261
0	18064	431.440020842876	387.41749208341
0	18224	435.119925547884	390.95925088043
0	18296	436.555550900857	392.23614051044
0	18350	437.900237276723	393.54569475815
0	18378	438.480690104327	393.90902499762
0	18380	438.482653307249	393.8838412039
0	18466	440.100482014313	395.42062059624
0	18524	441.983073902294	397.28070823484
0	18526	441.996850939553	397.19397370724
0	18576	443.024367176522	398.01953149389
0	18692	445.653984805714	400.36745795008
0	18716	446.069980964112	400.7673398506
0	18718	446.086244514772	400.4395089965
0	18744	446.860252934556	401.15340195165
0	18746	446.873564181751	401.04324521124
0	18762	447.168080658482	401.33041105023
0	18804	448.133411510599	402.20113172822
0	18826	448.671350420695	402.72254133708
0	18876	449.562062488659	403.55392034822
0	18966	451.719718578409	405.59247829263
0	18970	451.747820510346	405.61004061158
0	18984	452.110745871788	405.9247084515
0	19032	453.004781617671	406.49621258901
0	19044	453.35306608757	406.84254812962
0	19204	456.347740862591	409.75806199518
0	19238	457.187819127886	410.20904925143
0	19342	459.247955072454	412.21697406556
0	19364	459.51549527287	412.39778506409
0	19414	460.693120142418	413.49509625645
0	19432	461.197627608061	413.9679059841
0	19474	462.335292145733	415.04479204536
0	19510	463.165564652663	415.52415819719
0	19568	464.93400661042	417.22210522281
0	19584	465.230969171032	417.3957589107
0	19640	466.85949670789	418.9776000132
0	19792	471.037494328677	423.08115980785
0	19794	471.039486938707	423.08046435593
0	19808	471.328596789747	423.23070647958
0	19834	471.760739584578	423.62286974716
0	19874	472.424378244928	423.94501591727
0	19914	473.62125623281	425.12343231786
0	20022	476.204933212479	427.70211773729
0	20030	476.360045575282	427.62547749383
0	20042	476.699760620515	427.95414095141
0	20080	477.564017960297	428.74656170767
0	20220	480.61661329869	431.75631294318
0	20242	481.241245158826	432.30948138458
0	20330	483.922258118525	434.94158350322
0	20374	485.507530116248	436.41275116752
0	20408	486.348659840078	436.96436912964
0	20412	486.411002271717	437.00377984412
0	20448	487.145021066217	437.62475291879
0	20526	488.996759210835	439.3745957453
0	20584	490.599768116594	440.89811736745
0	20630	492.145126451243	442.41163640049
0	20654	492.435077834266	442.62313211382
0	20666	492.544608755862	442.69943697306
0	20684	493.196681062281	443.15750445849
0	20798	495.909991896442	445.82418559001
0	20812	496.174103109168	446.00663753385
0	20830	496.699498088728	446.48722371657
0	20902	498.207909922299	447.98626001138
0	20920	498.739965462174	448.44845745065
0	20932	498.989982957909	448.6463970599
0	20976	500.32662880597	449.96636333215
0	20980	500.36879456997	450.00606773174
0	21094	503.040494866866	452.62234118129
0	21144	504.560736204546	453.90595349259
0	21180	505.319517754728	454.64119445612
0	21238	506.473892679277	455.67816236699
0	21246	506.633924767867	455.82589819889
0	21248	506.770727197757	455.95222940144
0	21256	506.965019705106	456.06045043804
0	21302	508.406724065711	457.46793732948
0	21402	511.144724376198	460.12848596117
0	21408	511.196857645172	460.06915812985
0	21432	511.777790676623	460.35277032735
0	21480	512.66939281046	460.8865222886
0	21504	513.549000005989	461.51986505719
0	21582	515.502524326474	463.35415780026
0	21596	515.641176836719	463.32478207049
0	21630	516.458286790717	464.03730949521
0	21632	516.471138038585	463.79817187369
0	21710	518.448398921009	465.70204575942
0	21726	518.997970329529	466.1332143943
0	21786	520.540150134072	467.51105887532
0	21794	520.639604044309	467.60098433727
0	21892	522.9592435968	469.85881865205
0	21906	523.284481572039	470.15821070242
0	21912	523.441745354008	470.26266008531
0	21936	524.045954710436	470.78940806811
0	22042	526.348237603722	472.87341957246
0	22052	526.653996698217	472.96706322127
0	22074	527.064513166104	472.9834338207
0	22130	528.357649798582	474.20671009648
0	22158	529.217656575322	474.98859999422
0	22266	531.708591966529	477.46664752083
0	22282	532.338035426172	477.8392977176
0	22424	535.686571310567	481.01069827006
0	22586	539.996914286589	485.31664852267
0	22670	542.82406354294	487.89149603289
0	22694	543.479833020548	488.50921441564
0	22704	543.657510552802	488.65858470431
0	22758	544.685919589214	489.65132211545
0	22760	544.714047044288	489.44262596523
0	22830	545.900978028672	490.5384423688
0	22834	546.12125122743	490.699585289
0	22850	546.307086471188	490.64695899844
0	22852	546.313070474746	490.5949140432
0	22934	548.320380084425	492.59426663737
0	22938	548.395449766849	492.62450338913
0	22966	549.227435561256	493.33726395933
0	22974	549.288570746713	493.36997717043
0	23030	551.021516930984	494.89214531887
0	23080	552.469062703849	496.3333887473
0	23086	552.545633650288	496.34558721316
0	23088	552.553517378268	496.33309240292
0	23114	553.230140036466	496.87505233226
0	23128	553.714285963899	497.30214766089
0	23156	554.433329329046	497.79285162259
0	23220	556.117309146265	499.40155447461
0	23296	557.73163159036	500.97957220326
0	23336	558.425045723133	501.05339532416
0	23358	559.016739266795	501.29369098553
0	23374	559.416516017376	501.57941528862
0	23418	560.30122625233	502.37066748194
0	23448	561.022223064167	503.0546663758
0	23506	562.190611963641	504.15811420259
0	23574	563.909078355914	505.84934547223
0	23580	563.96487270777	505.68381710093
0	23626	565.009044092233	506.4645753458
0	23650	565.772518220599	507.13820923752
0	23662	565.99781261592	507.3491813057
0	23688	566.379105662891	507.68670040706
0	23744	567.728253763888	509.02566694386
0	23758	568.079999376907	509.27040430791
0	23786	568.537003646115	509.6217644777
0	23796	568.787496220884	509.69981786392
0	23870	570.422828791805	511.28452403814
0	23884	570.599712975888	511.0438638618
0	23966	572.645623461428	513.03032774567
0	24022	573.562086768528	513.81899083985
0	24028	573.597289298396	513.75269747388
0	24030	573.600704889855	513.58841959204
0	24086	575.504238109274	515.40892674678
0	24156	577.487326311346	517.17147486848
0	24240	579.599937288912	518.96958609077
0	24254	579.786891174211	519.11566821065
0	24274	580.652998058166	519.97530673409
0	24292	580.923537959287	520.24365389714
0	24378	582.527924673901	521.82034638922
0	24388	582.746382448492	522.02404097549
0	24428	583.516212364113	522.73725793594
0	24466	584.463083477469	523.65393354895
0	24468	584.492457387773	523.609493785
0	24496	584.967646535923	523.93636559234
0	24514	585.441185494542	524.09111613373
0	24542	586.087212593275	524.60033783033
0	24630	588.149877595655	526.38035043565
0	24654	588.658911918441	526.8839910628
0	24692	589.699693663323	527.65014762066
0	24712	590.250588826738	527.9786645025
0	24750	591.143347396426	528.82037355591
0	24764	591.323180705755	528.95234920814
0	24776	591.863890432006	529.46929234728
0	24876	593.572131451536	531.16153894547
0	24906	594.209165023722	531.65375790526
0	24918	594.54249019959	531.75805735914
0	24928	594.729123391457	531.93523387736
0	24948	595.25455247513	532.36411938106
0	24972	595.787445146608	532.84881413158
0	24986	596.084695914774	533.11841613134
0	25012	596.698265447547	533.3124588021
0	25070	597.792056152198	534.34517408926
0	25126	599.428484838516	535.59058869862
0	25260	602.454696227282	538.61275429182
0	25292	603.195326281654	539.34090559395
0	25342	604.240840303844	540.32031163606
0	25374	604.865656116573	540.91348470967
0	25540	608.130468897591	544.11700076382
0	25566	608.557146815414	544.49196198894
0	25570	608.627550951678	544.55629869518
0	25748	612.662544667995	548.48000603034
0	25812	613.823441085763	549.58987530833
0	25814	613.973488102736	549.6379828065
0	25830	614.309005615033	549.92255746777
0	25876	615.668070743818	551.23466179334
0	26082	620.036122789345	555.49435902004
0	26132	621.216945700523	556.50235599392
0	26194	622.35666446589	557.53611026497
0	26244	623.367858171473	558.4358924969
0	26280	624.169520979554	559.198386851
0	26336	625.266282531233	560.21816220909
0	26356	625.744994828263	560.64494913364
0	26374	626.0207751587	560.77120635226
0	26386	626.414584431434	561.13200495559
0	26390	626.434239544185	561.02650917265
0	26396	626.645470728249	561.18671444167
0	26438	627.492841812208	562.02245635896
0	26472	627.940402773757	562.39433188878
0	26504	628.66951361766	563.11453413694
0	26506	628.862804105007	563.18634905343
0	26508	628.865116368903	563.08793404848
0	26566	630.194189626583	564.19692561873
0	26600	630.88400236902	564.8758351748
0	26644	631.632540445314	565.50976544759
0	26698	632.830536444773	566.70479897182
0	26750	634.00241297762	567.87655467448
0	26772	634.583309255571	568.3808970442
0	26798	634.89677671804	568.4175545009
0	26804	635.185133440848	568.63163884874
0	26916	637.294967007696	570.58235218925
0	26984	638.491577670177	571.75782073424
0	27002	638.977364986107	572.19972263246
0	27032	639.648939212238	572.86936604807
0	27074	641.112800326292	574.14461565144
0	27118	642.448432866598	575.40723598972
0	27180	643.922569569713	576.73411140659
0	27272	646.116702589686	578.8007592813
0	27274	646.154234338399	578.79157570737
0	27338	647.629531417457	580.24165881879
0	27346	647.888588496872	580.46398908145
0	27422	649.969813783143	582.46815126164
0	27424	649.976126114996	582.47193748131
0	27494	651.207540576952	583.67255806371
0	27556	653.388549164572	585.84678106353
0	27636	655.998772911012	588.4318173315
0	27736	657.629920817905	589.86897906243
0	27852	659.971166146938	592.06174298406
0	27876	660.298491177111	592.17282751996
0	27880	660.346109175181	592.20379649864
0	27944	661.880047146835	593.69735917958
0	27948	662.063671897701	593.85872004524
0	27950	662.108216503716	593.77846282813
0	28078	665.264697357304	596.85981644435
0	28112	666.825861172744	598.41367900541
0	28272	670.124624302945	601.56035454485
0	28308	670.924328729861	602.31090443589
0	28314	671.032062082312	602.15661763065
0	28486	674.536176111342	605.65068110731
0	28504	674.818393356346	605.72802455295
0	28534	675.53629945242	606.3357910412
0	28654	678.477193254673	609.25527662398
0	28714	679.958457484445	610.29954087861
0	28832	683.574196902307	613.84575271838
0	28852	684.023975940257	614.24830888146
0	28882	684.546170524795	614.74119711622
0	28954	686.242005052113	616.35694077525
0	28958	686.333941689063	616.42649853499
0	28996	687.232724442157	617.21079264313
0	29082	689.591192450827	619.55900272581
0	29114	690.269255359235	620.16275206879
0	29138	690.588346088205	620.46935671198
0	29240	693.380246813258	623.21091482549
0	29264	693.833678736045	623.64692982616
0	29330	695.370715356718	625.15742945106
0	29374	696.611822688328	626.39374306271
0	29446	698.161902814816	627.85577134537
0	29476	699.058949252329	628.61544585641
0	29478	699.100768345079	628.65687816684
0	29572	701.28707919776	630.74928715917
0	29684	703.932641268617	633.37517716116
0	29754	705.706297253417	635.06231824007
0	29782	706.517800798855	635.85517682209
0	29802	706.952157547317	636.28104642945
0	29842	707.832997907741	637.04593519327
0	29858	708.069020289983	636.90558949616
0	29958	710.317092052868	639.11385515855
0	30010	711.589629612252	640.31553911039
0	30034	712.23735313563	640.80096363206
0	30132	715.038060515719	643.52193116456
0	30160	715.770341455997	644.20054989655
0	30198	716.619137835414	644.99562790225
0	30222	716.982689066429	645.28562345777
0	30232	717.204202996103	645.23128125516
0	30266	717.732763129081	645.75649591222
0	30296	718.711142857147	646.68836706591
0	30302	718.889752563075	646.81147359931
0	30312	719.037336141684	646.93059715952
0	30402	721.227651741477	648.73672112897
0	30470	722.583241534821	650.0309691157
0	30504	723.713059063367	651.11545819717
0	30526	724.270954413231	651.63239083102
0	30636	726.434213442967	653.71082317977
0	30660	726.868273081175	653.99585790931
0	30712	728.144924887656	654.98241881168
0	30716	728.277420877391	655.06763544694
0	30746	729.193016960781	655.75752281617
0	30780	729.74870620844	655.97463797354
0	30782	729.930702643928	656.13035886803
0	30982	734.304576615626	660.47614372418
0	30984	734.3064984903	660.40065839458
0	31030	735.716844525784	661.7928465083
0	31184	739.458883947522	665.39761352946
0	31224	740.088717715883	665.89963866843
0	31242	740.368312872184	666.14440896131
0	31262	740.870265161786	666.58041097091
0	31270	741.06273257606	666.71253050594
0	31292	741.976324414835	667.6031097679
0	31300	742.14284604133	667.61904628008
0	31334	742.97936771888	668.39797566035
0	31430	745.255188944274	670.65882236491
0	31464	745.984102739545	671.01888896264
0	31530	747.490004609932	672.51398622634
0	31536	747.629916713339	672.28329926601
0	31648	750.460632714843	675.06177234318
0	31688	751.641273027913	676.15842930611
0	31714	752.349854781557	676.81044876765
0	31854	755.32988167729	679.76216548049
0	31920	756.923895460016	681.32275972172
0	31924	756.996718017515	681.12177994969
0	31938	757.21114248346	681.24179029043
0	31972	757.871679397352	681.63267371893
0	31976	757.895785041089	681.38867985369
0	31998	758.689662861165	682.18005121501
0	32030	759.162739534536	682.64904643835
0	32094	760.265805092247	683.75136236161
0	32096	760.321455310436	683.7049293379
0	32170	762.218500370744	685.48383385835
0	32178	762.535989213775	685.75393654348
0	32226	763.883821379313	686.93602925695
0	32244	764.183316420734	687.11206891139
0	32272	764.685903100995	687.55385242908
0	32328	766.226296283521	689.00256822443
0	32344	766.606238550063	689.1546795167
0	32360	767.278540338085	689.68002797313
0	32364	767.319732532761	689.6601768135
0	32402	768.374794151864	690.68119061345
0	32474	769.928709191145	692.20855614847
0	32580	772.44631266686	694.71423313719
0	32622	773.299359406027	695.55879250397
0	32648	773.757117192057	695.99266943406
0	32700	775.096917998714	697.29360688409
0	32720	775.563324649797	697.73979784155
0	32848	778.541014565365	700.62298595805
0	32918	780.234576961342	702.27072089773
0	32968	781.120014212234	703.02661248223
0	33056	782.973472523058	704.76673196702
0	33170	786.106437909184	707.88406808889
0	33184	786.565682951413	708.28790471664
0	33252	787.788912312493	709.48778270712
0	33268	788.099150128152	709.52861475428
0	33284	788.304075849148	709.60823266587
0	33286	788.3133012797	709.6001243443
0	33342	789.73329801483	710.9782451442
0	33406	791.158883143331	712.31076291704
0	33428	791.530162832296	712.5731809887
0	33514	793.509071574571	714.35935928125
0	33558	794.451564760243	715.13475380941
0	33594	795.53272067304	716.20756492045
0	33774	799.48863678888	720.15842021536
0	33836	801.162093389019	721.7590745272
0	33994	804.485937659178	725.04826209644
0	34106	806.297356223239	726.71898760598
0	34122	806.598159678148	727.01651050541
0	34124	806.599951071149	726.96415464905
0	34166	807.4931231895	727.83833759165
0	34208	808.230160661858	728.40119366186
0	34226	808.62253418846	728.71461952898
0	34258	809.250359270004	729.27836200338
0	34294	810.123382036879	729.93743701795
0	34370	812.244428309665	732.00576641177
0	34372	812.258798189241	731.96534942195
0	34398	812.772496318438	732.35766149484
0	34416	813.392852763264	732.7581414107
0	34428	813.710212770676	732.94183531423
0	34526	815.655219471256	734.68103289705
0	34622	818.071393946568	736.84524835646
0	34636	818.429047221098	737.18342102134
0	34650	819.150461614056	737.71849681592
0	34688	820.093604743528	738.59027883007
0	34768	822.043651113892	740.44317840507
0	34792	822.662265900813	741.03443670577
0	34800	822.929284277634	741.04466281062
0	34826	823.601831503458	741.68396484428
0	34832	823.717854938824	741.75849262138
0	34912	825.545378415182	743.57478262967
0	35048	828.440948906313	746.37867081707
0	35066	828.66417464085	746.27167815636
0	35074	828.716803376058	746.18128495674
0	35088	829.048604398869	746.46859613266
0	35098	829.177550719483	746.57702217144
0	35168	830.607448685504	747.88351213478
0	35250	832.358028152679	749.54556991749
0	35366	834.843228171128	751.99271084601
0	35438	836.59983158127	753.72648959383
0	35454	837.086973439205	754.15441397137
0	35458	837.15945721445	754.06773953531
0	35460	837.216718290371	753.87852459759
0	35482	837.708420163826	754.23864504786
0	35494	837.974413256749	754.49992755704
0	35552	838.97446874185	755.36995412793
0	35558	839.042447396154	755.35172661951
0	35660	841.098197231431	757.37975611093
0	35664	841.112594437894	757.23539038864
0	35790	843.91678643369	759.9973420395
0	35800	844.102659374998	760.07257967431
0	36000	849.229046151765	764.8672597133
0	36044	849.957076666861	764.99866665843
0	36050	850.142964633022	765.17566318835
0	36054	850.376825005776	765.34057226891
0	36082	850.950703105018	765.71286862172
0	36128	852.159429807711	766.8227804591
0	36142	852.29248689286	766.81179838374
0	36162	852.844249505171	767.14408429118
0	36188	853.3869454669	767.64397973786
0	36202	853.701124355618	767.89591882414
0	36248	854.671427142816	768.86009966813
0	36270	855.277855202529	769.38083541769
0	36304	855.932395637079	769.78460361872
0	36388	857.524959484267	771.33644974785
0	36414	858.01709779864	771.72092219734
0	36540	860.363291059605	774.04783315942
0	36596	862.117546448584	775.67299227784
0	36676	863.932695142137	777.35021943632
0	36694	864.334820059132	777.74648846849
0	36714	864.9403085264	777.95831632277
0	36718	865.171428102043	778.10584814166
0	36804	866.839531894721	779.72807840021
0	36810	866.943065995625	779.7950290172
0	36884	868.772641795533	781.17587497598
0	36886	868.785013621273	781.08115129708
0	36952	870.360285597664	782.58358187593
0	37028	872.332924050443	784.48986816022
0	37030	872.42735622202	784.57331005428
0	37048	872.865688479906	784.9307539433
0	37114	874.532387435963	786.50214755674
0	37156	875.752200740033	787.59265366702
0	37236	877.76285007971	789.59937098171
0	37252	878.221580070706	789.72574476006
0	37328	880.029203657241	791.29990952439
0	37352	880.70765131163	791.96785079549
0	37390	881.454827675477	792.62717761029
0	37400	881.781050513274	792.81207346656
0	37416	882.104793137953	793.10685252144
0	37424	882.318082769404	793.28473327288
0	37442	882.442381701369	792.91282893036
0	37522	884.137429948193	794.58208265425
0	37584	885.515770504671	795.95328951009
0	37620	886.20468925962	796.61441696036
0	37634	886.453051602106	796.74046032879
0	37650	886.689938346777	796.92705583179
0	37654	886.765936189233	796.96582549593
0	37678	887.295043770285	797.42486597277
0	37686	887.350740427684	797.35375543778
0	37778	889.77863376987	799.73181989825
0	37782	889.821361495989	799.7336036931
0	37814	890.295850668458	800.15834586783
0	37824	890.448983304701	800.15324443904
0	37952	893.878842549381	803.46066538012
0	37958	894.193746012386	803.73716168596
0	37978	894.819976376179	803.99613609123
0	38008	895.362666374733	804.50445855128
0	38070	896.669307653955	805.69039271441
0	38088	897.194706585552	806.19597151396
0	38152	898.756287391148	807.69943158924
0	38156	898.840948831174	807.76086249285
0	38210	899.989197426094	808.79975915006
0	38232	900.455934918053	809.12629894732
0	38282	901.459078393483	810.03678873169
0	38344	902.926527896563	811.43579634062
0	38414	904.611848204724	813.09625719635
0	38424	904.804673094281	813.27652105097
0	38486	906.107949622994	814.48227467544
0	38530	906.945781001958	815.3082844349
0	38660	909.831527222333	818.12638366729
0	38696	910.676314586084	818.77867744728
0	38700	910.741929082314	818.77840108882
0	38720	911.262203446974	819.23110522191
0	38744	911.824676459762	819.66270871872
0	38830	913.898274155497	821.72879629737
0	38878	915.004387936072	822.82774085614
0	38880	915.017537362072	822.80802407637
0	38928	916.200148741848	823.75776286743
0	38940	916.404113110575	823.94230813828
0	38942	916.503009079387	823.76125183025
0	39006	918.284939193499	825.48446140723
0	39030	919.271916900368	826.40085391459
0	39096	920.961924678294	827.93490656434
0	39144	922.219305252463	829.17031476396
0	39202	923.570645666478	830.45870938784
0	39266	925.216461243923	832.0279729179
0	39268	925.241452115756	832.04510636704
0	39278	925.558287464271	832.32765774297
0	39290	925.659869341403	832.25272344214
0	39396	927.912283978935	834.46887257837
0	39402	928.214347494306	834.6146509383
0	39426	928.865178701099	835.17606214607
0	39468	930.059542792157	836.11568111204
0	39500	930.835879359543	836.76754147155
0	39580	932.697111526376	838.53940444921
0	39596	933.021773502486	838.74365430931
0	39598	933.024493805407	838.67857606006
0	39604	933.243911764953	838.85321919213
0	39612	933.474688860823	838.90443059411
0	39692	935.388643413414	840.79432624393
0	39702	935.833409898026	841.18568312974
0	39724	936.428829590534	841.72748290324
0	39746	936.725314332463	842.02274306128
0	39760	936.875518997973	842.16968966143
0	39764	936.975950993722	842.23113843253
0	39784	937.301619879852	842.55051387047
0	39786	937.364259257418	842.58707293242
0	39880	939.359855872958	844.51197273155
0	39962	941.608513789669	846.64171384081
0	39966	941.729593604875	846.73660369696
0	39982	942.033561933303	847.03029382219
0	40042	943.454155957702	848.43831715771
0	40100	944.929179539037	849.84099613904
0	40134	945.518594028148	850.15168176488
0	40228	947.779682333234	852.32290527449
0	40254	948.556048193105	853.0982596668
0	40288	949.344182371665	853.84078466879
0	40310	949.989416680999	854.42142578277
0	40338	950.316500842228	854.48137747695
0	40386	951.593802330596	855.75418179853
0	40396	951.725970153708	855.8009964546
0	40456	952.718646247626	856.77399370191
0	40472	952.828829921766	856.81076349442
0	40502	953.498052545684	857.46767196764
0	40596	955.860370769884	859.8268760985
0	40660	957.513604496031	861.45208867684
0	40678	958.022451926275	861.94766420409
0	40690	958.383138509901	862.0011419237
0	40696	958.41404216673	861.99814179776
0	40742	959.472545886445	862.89817694679
0	40828	961.519651740899	864.89224533476
0	40920	963.237932909852	866.605734312
0	40936	963.740037682558	867.04061072355
0	40974	964.939516093943	868.21216034473
0	40982	965.082134408686	868.20147801889
0	40996	965.637815219834	868.66833041983
0	41006	965.903981613419	868.90818072375
0	41014	966.01111688284	868.87538203693
0	41018	966.049850077088	868.84675915213
0	41022	966.234540428456	869.00455245067
0	41102	967.70731257848	870.34102726752
0	41150	969.068212684549	871.51879007558
0	41158	969.224788942145	871.6609851977
0	41166	969.406733212183	871.69229720151
0	41460	976.076739481577	878.17368858821
0	41506	976.935607498814	878.9651397825
0	41568	978.15134189294	880.16037467922
0	41594	978.449453161738	880.43203949183
0	41648	979.917476187417	881.35243063237
0	41688	981.047408259803	882.37894558088
0	41788	983.436546366253	884.73915375451
0	41800	983.82765411476	885.00318289108
0	41838	984.759993654842	885.87569790963
0	41878	985.95591103058	887.02853809406
0	41902	986.482507374817	887.52112447998
0	41914	986.690688270027	887.47523103147
0	41942	987.261353853348	887.97128211509
0	41948	987.388881847025	888.02206571647
0	41976	988.49128630169	889.02593114668
0	42076	990.776568406769	891.27551868813
0	42100	991.3759197448	891.87241281158
0	42104	991.444622746965	891.91008375227
0	42182	992.877409946234	893.28663870905
0	42186	993.163273127917	893.50464993588
0	42284	995.156055484581	895.30553255008
0	42290	995.287308741777	895.4299357391
0	42318	996.148809778913	896.26056219944
0	42384	997.675255022836	897.78561123654
0	42442	999.104956155116	899.21395229122
0	42458	999.538139545949	899.40448312614
0	42482	1000.239137797158	900.03936440894
0	42536	1001.567126778505	901.33776666956
0	42568	1002.437602274225	902.09521808139
0	42732	1005.621105419623	905.25222401322
0	42770	1006.366666952109	905.97539144966
0	42776	1006.56609817751	906.13762507422
0	42838	1007.959427002593	907.37430291878
0	42904	1009.538323592524	908.94011321513
0	42924	1009.965681422376	909.24189415881
0	42956	1010.443403911096	909.63796051442
0	42974	1011.00250008103	910.1710141774
0	43008	1011.62022358707	910.73449971407
0	43032	1011.995726397103	911.10947010427
0	43204	1015.928739066276	914.96774090589
0	43262	1017.047168782788	916.01458597767
0	43280	1017.358576126453	916.31729680356
0	43312	1018.601976265531	917.55442658542
0	43316	1018.635592378628	917.58280009663
0	43340	1019.184636194041	917.89663832353
0	43358	1019.452173021846	918.05884158999
0	43404	1020.682084386182	919.09285154227
0	43434	1021.480529673421	919.87480615392
0	43580	1024.760728944357	923.15193803729
0	43602	1025.202837610708	923.59398026001
0	43646	1026.314736475878	924.46500385111
0	43868	1031.280248053253	929.41000373094
0	43974	1034.059813299732	932.16900206542
0	43986	1034.203373329344	932.08631101465
0	44070	1035.966087241746	933.47975755494
0	44100	1036.503955071218	933.99620129223
0	44246	1040.087950207688	937.52708467678
0	44384	1044.050610625788	941.4207522377
0	44394	1044.194031260575	941.54897918663
0	44476	1045.594900391748	942.92192671398
0	44528	1047.017583833279	944.00245648089
0	44572	1048.05325680817	944.84071278675
0	44610	1049.04742596098	945.72367705092
0	44676	1050.468291195056	946.92931573174
0	44770	1052.738705507697	948.94091667775
0	44804	1053.421258706477	949.54911482779
0	44818	1053.857045697453	949.83032119788
0	44822	1053.96483519791	949.93170634653
0	44892	1056.066773915237	951.81734374395
0	44918	1056.768604799394	952.50863827887
0	45016	1059.11341316367	954.81518905574
0	45032	1059.618978613499	955.24611005832
0	45048	1059.962211694552	955.58762237005
0	45052	1060.138589091089	955.64216848897
0	45158	1062.94971988375	958.14195901359
0	45268	1065.71391985396	960.89362309753
0	45298	1066.491121907093	961.59043089389
0	45332	1067.06186358906	962.13020925328
0	45346	1067.219446891685	962.1230689556
0	45476	1071.47818057282	966.35089086772
0	45492	1071.711612732455	966.56646312305
0	45552	1072.850411861656	967.52915089788
0	45584	1073.41788395031	967.67592532451
0	45594	1073.520164861151	967.77137039985
0	45710	1076.115521771222	970.28152616218
0	45742	1077.018860834037	971.12092092566
0	45766	1077.661176328153	971.70191136762
0	45774	1078.049021156972	972.03208530093
0	45826	1079.477451400556	973.43785107267
0	45828	1079.509438189846	973.24396865955
0	45842	1079.798461172672	973.47476410926
0	46010	1083.353713204514	976.90412654058
0	46038	1083.938287225468	977.4851212557
0	46140	1086.983560084042	980.4901294178
0	46142	1087.005613060967	980.27548984741
0	46146	1087.017952402118	980.26475400486
0	46164	1087.403213539235	980.48053499953
0	46198	1088.010097359781	980.89649377108
0	46218	1088.590622470292	981.44887830815
0	46238	1088.970120831763	981.81666458572
0	46264	1089.585255558979	982.40934786172
0	46278	1089.998617083356	982.72305909206
0	46350	1091.30495812312	984.02161531126
0	46360	1091.67680771565	983.77230346615
0	46396	1092.599690721063	984.60272317958
0	46402	1092.642280638181	984.61309606002
0	46408	1092.747142903321	984.70425934601
0	46416	1092.857709661004	984.72731294513
0	46462	1094.512931602539	986.38232821008
0	46512	1095.435185101556	987.18552642942
0	46626	1097.999178135465	989.69634287016
0	46642	1098.153608479613	989.8328223447
0	46650	1098.43526024621	990.07436057634
0	46686	1099.314725583893	990.72960844832
0	46740	1100.243825810193	991.57312754259
0	46748	1100.757163700694	992.05679075451
0	46754	1100.997363246497	992.26996809036
0	46788	1101.655850047316	992.79805394188
0	47002	1107.251702168419	998.33441544622
0	47068	1109.033345253078	1000.0760628268
0	47100	1109.717576696072	1000.7086857973
0	47106	1109.844314038353	1000.8282863785
0	47146	1110.532959673527	1001.5054845407
0	47166	1110.887537915751	1001.5733421757
0	47184	1111.475173899729	1002.1359757311
0	47252	1112.800140122246	1003.3923152379
0	47274	1113.530860558079	1004.0834491314
0	47338	1115.201270219402	1005.743050562
0	47424	1117.842724654075	1008.3644797012
0	47438	1118.233577303269	1008.7371454362
0	47566	1121.037253765285	1011.5084357275
0	47580	1121.343560764834	1011.7441513096
0	47614	1122.247423732503	1012.524330051
0	47626	1122.469590247369	1012.5996880746
0	47692	1124.342843480017	1014.4555781199
0	47698	1124.500569058377	1014.5870930014
0	47730	1125.03945778575	1015.0946873434
0	47900	1128.849615760647	1018.8643741317
0	48024	1132.207713242166	1022.0613999414
0	48032	1132.531180381588	1022.0734866646
0	48096	1134.332812182799	1023.6997845954
0	48274	1138.803786711799	1027.9524005628
0	48282	1139.036460100269	1028.1740934865
0	48320	1139.913113591768	1029.0502140565
0	48362	1140.827265408091	1029.8638586892
0	48388	1141.340070630407	1030.1481969976
0	48402	1141.433929968574	1030.1982335668
0	48448	1142.456906724365	1031.2102758712
0	48554	1144.892252854383	1033.6421865005
0	48612	1146.485989497459	1035.2340969336
0	48650	1147.252759039176	1035.9922151977
0	48678	1147.89371910431	1036.5438725739
0	48684	1148.088558877489	1036.5935404947
0	48714	1148.806253844087	1037.1509449076
0	48716	1148.974284683092	1037.2906369616
0	48724	1149.218178863036	1037.4989844815
0	48738	1149.544509953704	1037.7572745869
0	48744	1149.837554345183	1038.0011506239
0	48754	1150.301895600183	1038.4489710239
0	48758	1150.384017079539	1038.4644863531
0	48812	1151.350261723671	1039.3420210363
0	48884	1153.413922975035	1040.9930750668
0	48890	1153.47171421932	1041.0015106672
0	48892	1153.546065115421	1040.983803181
0	48974	1155.401281185987	1042.5496552544
0	49094	1158.288011076133	1045.3089935828
0	49110	1158.66005405969	1045.5214564707
0	49140	1159.375201864591	1046.127341576
0	49152	1159.562239989998	1046.259378965
0	49194	1160.486561831546	1047.1615125047
0	49230	1161.327629730347	1047.8132789202
0	49258	1161.949926419646	1048.3128610837
0	49318	1163.393049318028	1049.7275328989
0	49324	1163.466178895783	1049.6251866077
0	49338	1163.723085729382	1049.755160108
0	49388	1164.781344529359	1050.6117828161
0	49390	1164.859431323385	1050.5775741494
0	49406	1165.352188111344	1050.9584931427
0	49434	1165.936491708568	1051.5104537724
0	49512	1167.424535832941	1052.8363692365
0	49616	1169.106683779603	1054.4363166691
0	49624	1169.2640926209	1054.4819798902
0	49686	1170.27990879953	1055.4116600272
0	49712	1170.91924128632	1056.0151378555
0	49860	1174.782824656956	1059.7377167971
0	49868	1175.219046980194	1060.1319440492
0	49988	1177.439382028041	1062.1331165321
0	49996	1177.698326012033	1062.2949349697
0	50028	1178.442433841342	1062.9331998182
0	50062	1179.439390290722	1063.8879527288
0	50094	1180.456541420587	1064.8255084818
0	50104	1180.58745999494	1064.7875653938
0	50114	1180.84686917482	1065.0365928067
0	50164	1181.865780851063	1065.9513139936
0	50216	1183.09672055097	1067.1335201464
0	50294	1184.937409547083	1068.9700039722
0	50330	1185.879072131642	1069.9084581747
0	50398	1187.322665662906	1071.1825406705
0	50428	1187.984325035911	1071.6794009799
0	50492	1190.082296952463	1073.624460673
0	50518	1190.696260121297	1074.2223624811
0	50562	1191.624401934826	1074.9221172002
0	50564	1191.695868822515	1074.9878231429
0	50606	1192.602404934297	1075.8104973842
0	50610	1192.688116383653	1075.4887597088
0	50614	1192.745414847892	1075.5459889941
0	50618	1192.874890614518	1075.1839278111
0	50656	1193.627439029296	1075.514077514
0	50662	1193.664310512016	1075.467406097
0	50674	1193.92811003438	1075.7273799288
0	50734	1195.081173926814	1076.8598868404
0	50750	1195.545145776085	1077.1763499849
0	50774	1195.905613289681	1077.4159388097
0	50784	1196.174721087895	1077.6814235816
0	50842	1198.091610944229	1079.4891903463
0	50844	1198.143280032979	1079.4597386256
0	50858	1198.366528439774	1079.6765130329
0	50866	1198.557146487482	1079.7672403036
0	50912	1199.59834032538	1080.7898839582
0	50922	1199.686639531774	1080.5426707183
0	50976	1200.432239065326	1081.2470453144
0	50996	1200.75713295781	1081.4837241995
0	50998	1200.798399654203	1081.1317183224
0	51020	1201.407721399217	1081.6958087983
0	51118	1203.578154962358	1083.7111651936
0	51238	1207.329962049355	1087.4126148057
0	51242	1207.412559849221	1087.1840625248
0	51364	1210.378146301864	1090.0111388918
0	51374	1210.584110435812	1090.2136184211
0	51416	1211.369219887503	1090.9860675347
0	51436	1211.913242810694	1091.3713495317
0	51452	1212.350364853848	1091.6563372384
0	51480	1212.707782669423	1091.8806728402
0	51482	1212.946457751356	1092.088432767
0	51500	1213.490483344602	1092.3843585326
0	51588	1215.945072984081	1094.7773526659
0	51600	1216.578764455299	1095.341725138
0	51620	1217.206924912813	1095.88464557
0	51658	1218.361877466811	1096.4729245683
0	51730	1220.594453338561	1098.3178043797
0	51768	1221.390156554956	1099.010388178
0	51786	1221.753241122765	1099.328985016
0	51806	1222.2475080578	1099.7949390986
0	51818	1222.681886760876	1100.0106589155
0	51826	1222.805443454129	1100.0780042826
0	51862	1223.424129136975	1100.6930502564
0	51926	1224.889021622608	1102.0563757428
0	51932	1225.072855696982	1102.2299072704
0	51962	1225.686351138132	1102.7736659875
0	51984	1226.119652724757	1103.1767338745
0	52002	1226.453335731559	1103.356150831
0	52026	1226.695531568975	1103.5015741646
0	52028	1226.776603685776	1103.5658766265
0	52034	1227.036592857233	1103.7901052371
0	52060	1227.538073951613	1104.2334530286
0	52094	1228.07267802241	1104.6876625534
0	52110	1228.25669758267	1104.7920873868
0	52126	1228.591374294708	1105.0626467092
0	52128	1228.595595672938	1105.0358145227
0	52156	1229.068451730906	1105.5065115726
0	52212	1230.250642423763	1106.461343813
0	52232	1230.666603276098	1106.8543619132
0	52240	1230.843682679466	1107.0163885844
0	52320	1233.053584933569	1108.950075007
0	52336	1233.343173204966	1109.1995264821
0	52404	1234.721582024786	1110.5312375383
0	52408	1234.963215793639	1110.732633986
0	52446	1235.726549442991	1111.4573533928
0	52478	1236.404845926111	1112.0855357971
0	52524	1237.524745097973	1113.1641434814
0	52540	1237.745288258114	1113.1981541661
0	52612	1239.837070538067	1115.2442900847
0	52662	1240.725118495232	1115.9310036162
0	52684	1241.028328984049	1116.2324212616
0	52776	1242.877366132879	1117.9734196226
0	52900	1245.548158202844	1120.3268555793
0	52924	1245.989784073591	1120.5145752391
0	52968	1246.758433399689	1121.081397795
0	53006	1247.84350305296	1121.7902709957
0	53026	1248.215486696787	1122.0490868327
0	53104	1249.926934106986	1123.6891951311
0	53120	1250.246831579812	1123.9120336639
0	53174	1251.624020878955	1125.260124451
0	53176	1251.65342489275	1125.2792354334
0	53202	1252.191937357684	1125.6020202514
0	53212	1252.359312399859	1125.7650402295
0	53214	1252.402916491662	1125.6842098135
0	53264	1253.526428317964	1126.7280402232
0	53324	1255.312597689296	1128.4637546017
0	53328	1255.400664005167	1128.5198447966
0	53336	1255.635905252975	1128.7301341756
0	53490	1259.359296281107	1132.3329515582
0	53582	1261.216280393839	1134.1732614155
0	53624	1262.177682302615	1134.9920044912
0	53688	1263.500264469188	1136.1572189726
0	53712	1264.212622725705	1136.7896513815
0	53724	1264.680717081753	1137.1817474379
0	53812	1266.739694864749	1139.1453337785
0	53982	1270.296173575182	1142.6570107413
0	54036	1271.532401605546	1143.8894551255
0	54180	1274.146509413308	1146.4956748349
0	54232	1275.432893846123	1147.7806238639
0	54326	1277.237868327398	1149.171892104
0	54454	1280.400438325028	1152.1610346831
0	54456	1280.408751403779	1152.1140348629
0	54458	1280.455208369333	1151.8365520165
0	54484	1281.261364322907	1152.60354401
0	54570	1283.661551821986	1154.9673404462
0	54574	1283.6969953374	1154.9211422721
0	54598	1284.298327699875	1155.5047471159
0	54780	1287.958706684907	1158.7608851239
0	54856	1289.68887082875	1160.4164120565
0	54864	1289.860560190746	1160.5130842098
0	54900	1290.655812354408	1161.2812180625
0	54904	1290.670576283021	1161.2643318385
0	54912	1290.990303158379	1161.5542101293
0	54964	1292.085031032297	1162.6270758557
0	55076	1294.726040323439	1165.1920879784
0	55104	1295.358805692772	1165.8160600132
0	55136	1296.197500466703	1166.3566114793
0	55186	1297.193882525711	1167.2490090201
0	55240	1298.624382445051	1168.661005282
0	55248	1298.777883685616	1168.7507907434
0	55278	1299.274043416845	1169.1395977448
0	55296	1299.784249322484	1169.6483145249
0	55344	1300.829633401948	1170.6586162553
0	55370	1301.346279781956	1171.0129425877
0	55406	1302.26516192233	1171.8878362842
0	55442	1303.082421219012	1172.5388633422
0	55508	1304.597855910237	1173.9624352656
0	55534	1305.388688977625	1174.7451206324
0	55550	1305.497696886797	1174.7249150638
0	55674	1308.254373347839	1177.4690928283
0	55684	1308.450854545686	1177.5488795312
0	55744	1309.720115341753	1178.6950462225
0	55802	1311.29875336025	1180.2625494552
0	55968	1315.262760506489	1184.0807947216
0	56078	1318.113377689928	1186.897563099
0	56158	1319.814884070673	1188.4743677163
0	56194	1320.867215492355	1189.4472351119
0	56220	1321.201591375398	1189.703226612
0	56228	1321.351274932151	1189.71834405
0	56258	1321.90838440727	1190.0764348371
0	56388	1324.76761177195	1192.7863068208
0	56490	1327.30439238667	1195.2905158147
0	56514	1328.08497947489	1195.9190103163
0	56532	1328.592621132125	1196.3423233055
0	56548	1328.882866026906	1196.5457614914
0	56574	1329.649668410772	1197.1634518037
0	56600	1330.266129714467	1197.6178552423
0	56602	1330.318264577833	1197.6662519578
0	56606	1330.332359373103	1197.5442719179
0	56656	1331.334779973663	1198.4055160283
0	56750	1334.427155753125	1201.2354890109
0	56772	1335.083177560331	1201.8594495523
0	56822	1336.615577356808	1203.3732242236
0	56840	1336.882611351603	1203.519245554
0	56882	1337.804266093322	1204.4368990735
0	57052	1341.679939350585	1208.3095065345
0	57094	1342.67869074396	1209.2520204862
0	57106	1342.792371734281	1209.3092694616
0	57108	1342.853788481188	1209.3119013306
0	57146	1343.465109710561	1209.847465697
0	57240	1346.181140742853	1212.4858334238
0	57320	1347.84153885911	1214.0425143518
0	57348	1348.416486024017	1214.5751714051
0	57454	1350.31114135335	1216.3916637617
0	57470	1350.77615816494	1216.8183524327
0	57516	1351.906829421798	1217.8751275856
0	57548	1352.504737622074	1218.3062978817
0	57640	1354.342858681161	1219.9124962248
0	57674	1355.040053570501	1220.5069035842
0	57800	1357.322715074738	1222.6452283509
0	57812	1357.547600401472	1222.4475869875
0	57818	1357.589413665238	1222.4482899954
0	57906	1359.386877688399	1224.2081259132
0	57940	1360.151172220313	1224.9161672332
0	58032	1361.452888082206	1226.1954102685
0	58074	1362.454627654681	1227.1948913721
0	58168	1364.902152414058	1229.5756393098
0	58222	1365.703446938087	1230.2187974292
0	58242	1366.122600607267	1230.3798638445
0	58290	1367.085636711402	1231.0996864211
0	58436	1370.621983043422	1234.407127377
0	58474	1371.413783238561	1235.0869480847
0	58480	1371.560388604884	1235.197396006
0	58534	1372.911798570223	1236.4454608069
0	58594	1374.002518902228	1237.5051638031
0	58638	1374.839568858149	1238.1947702924
0	58676	1375.445999226123	1238.7776460874
0	58708	1376.205863542345	1238.6544337731
0	58734	1376.600962513926	1239.0418906399
0	58824	1379.106740997823	1241.5121799981
0	58888	1380.86129276778	1243.2372861004
0	58912	1381.658211956743	1243.8953609623
0	58956	1382.762255212114	1244.9475818729
0	58980	1383.022137696497	1244.5848575373
0	59054	1384.399821317971	1245.912021987
0	59070	1384.710535071708	1246.211454425
0	59104	1385.594373299411	1246.9965834845
0	59108	1385.78728577651	1247.1543801187
0	59114	1385.862929357776	1246.9392168462
0	59142	1386.452694548879	1247.4671687501
0	59164	1386.828792872874	1247.5696830228
0	59212	1388.065926241229	1248.7762526237
0	59244	1388.744088357703	1249.3333560804
0	59342	1390.797641560105	1251.3196365905
0	59348	1390.873545417395	1251.2478606998
0	59440	1393.284288724246	1253.633997581
0	59540	1396.501650404146	1256.8178279966
0	59542	1396.61494292037	1256.8941851421
0	59562	1396.997019396416	1257.0377752538
0	59572	1397.395637773067	1257.3408706105
0	59656	1399.366298714869	1259.3037438907
0	59762	1401.533226965518	1261.390081924
0	59774	1401.831782423758	1261.5080640974
0	59792	1402.114544442605	1261.7528944796
0	59872	1404.583720576872	1264.0090491123
0	59880	1404.865441556025	1264.2189625473
0	59962	1407.200398301233	1266.5473239684
0	59976	1407.485205500823	1266.7385977365
0	60014	1408.031575268534	1267.2101894197
0	60052	1409.387908618297	1268.2682018729
0	60112	1410.437521144407	1269.3071255593
0	60138	1411.269056064036	1270.1022489803
0	60194	1412.412580705448	1271.2119846792
0	60284	1414.076979291826	1272.466343097
0	60482	1419.008018193248	1277.2273070938
0	60520	1420.353307787285	1278.426042583
0	60542	1420.651909338566	1278.611356375
0	60590	1422.131275932461	1279.7386900873
0	60604	1422.817599048851	1280.3314597036
0	60630	1423.110279034025	1280.622501057
0	60640	1423.339683663995	1280.8057115545
0	60662	1424.275451175699	1281.6536181492
0	60718	1425.402106044393	1282.7631607976
0	60732	1425.813116658962	1282.9458070919
0	60770	1426.846992234438	1283.9631076238
0	60804	1427.560225793607	1284.6612077742
0	60820	1428.129477838472	1285.1056700307
0	60822	1428.184352323599	1285.1382452739
0	60824	1428.186384295711	1285.1343118758
0	60880	1429.729656127723	1286.5919843988
0	60920	1430.794565413736	1287.6224488542
0	60960	1431.755695693551	1288.5797004069
0	60996	1432.692301471542	1289.3896791424
0	61076	1434.154136993405	1290.7893296253
0	61180	1437.478156842046	1294.0033374845
0	61212	1438.158592859382	1294.6470567268
0	61234	1438.53803657829	1294.6935185285
0	61238	1438.595581262117	1294.371269576
0	61242	1438.674220496037	1294.1895487509
0	61370	1441.5451147704	1296.9333358791
0	61532	1444.965825884829	1299.9449627114
0	61540	1445.148692784854	1300.1235008533
0	61556	1445.368127702042	1300.3267428558
0	61596	1446.112254367878	1301.0450259936
0	61600	1446.25079389218	1301.063322813
0	61614	1446.6856033036	1301.4389298642
0	61678	1448.087025912242	1302.6589578733
0	61698	1448.525843070328	1302.7424806666
0	61720	1448.945896054486	1303.1591682816
0	61776	1450.172276628044	1304.2255609718
0	61858	1452.359360053665	1306.3325725025
0	61910	1453.85180551623	1307.4314557234
0	61912	1453.870039926932	1307.4450322482
0	61952	1454.903158211411	1308.3793404562
0	62006	1456.140018592653	1309.594138315
0	62048	1456.92157606373	1310.2862923112
0	62052	1457.026007657211	1310.211781638
0	62054	1457.059792678191	1310.2236639745
0	62088	1458.087877277572	1311.1984608543
0	62094	1458.340233345538	1311.4169696791
0	62142	1459.247966163076	1312.2008949531
0	62170	1459.901317505372	1312.841030697
0	62214	1460.922323724893	1313.8238727717
0	62382	1464.93650895686	1317.641643275
0	62392	1465.208400235945	1317.7877893883
0	62482	1466.962105824896	1319.4366108611
0	62492	1467.165307518616	1319.4924106731
0	62510	1467.569494639665	1319.8870435261
0	62648	1470.680408305424	1322.9167781526
0	62670	1471.126628045664	1323.2276720389
0	62686	1471.700994673049	1323.7700125521
0	62688	1471.805123289707	1323.6352741559
0	62690	1471.880146475543	1323.6940042928
0	62710	1472.462081727876	1324.1278228867
0	62746	1473.600844026976	1325.2106573617
0	62762	1474.012689949838	1325.4826316623
0	62766	1474.193115855747	1325.6111981086
0	62822	1475.69499082305	1327.1039760271
0	62836	1476.153356920015	1327.1573635905
0	62874	1476.850453978842	1327.8467913036
0	62884	1477.059347791165	1327.9050683805
0	62976	1479.111418297315	1329.8307101492
0	62982	1479.306210316494	1329.8915032323
0	63094	1481.44542415941	1331.9825350707
0	63116	1481.784548447778	1332.0486586133
0	63118	1481.80939991342	1332.0100999306
0	63142	1482.518790565473	1332.6822492852
0	63156	1482.724301934633	1332.8187584901
0	63204	1483.624845450361	1333.5983076916
0	63208	1483.658337422207	1333.6168989716
0	63234	1483.997673805228	1333.9346693426
0	63378	1486.638100474931	1336.5638008262
0	63392	1486.904217525759	1336.7688781402
0	63402	1487.174819512405	1337.0040629193
0	63640	1491.998042418385	1341.6288295881
0	63660	1492.274820421084	1341.898089659
0	63720	1493.813332872185	1343.3937289626
0	63736	1494.125047703387	1343.5944471107
0	63758	1494.499898435439	1343.9532821704
0	63800	1495.630317839804	1344.9202883192
0	63808	1496.036684497718	1344.6856607879
0	63816	1496.185459905938	1344.6906670233
0	63912	1498.348457061054	1346.8105441536
0	63982	1500.197271199731	1348.4071124098
0	63996	1500.690566532819	1348.8775451691
0	64002	1500.789001091704	1348.8736576494
0	64006	1500.952039854723	1348.9889474199
0	64028	1501.317769087066	1349.2860440335
0	64032	1501.660279053395	1349.6242157966
0	64054	1502.03311557196	1349.9950176299
0	64066	1502.265568668165	1350.1552171767
0	64132	1504.095352857166	1351.9058441449
0	64232	1506.399613054515	1354.1528549794
0	64236	1506.435238654373	1354.1624858726
0	64288	1507.828437193413	1355.5113702159
0	64300	1508.12498903918	1355.6982590648
0	64338	1509.20148914538	1356.7176410824
0	64464	1512.106246728406	1359.4674568952
0	64472	1512.386196151362	1359.6749228731
0	64526	1514.002749642728	1361.2458825731
0	64552	1514.540833485553	1361.7457478161
0	64554	1514.583369510254	1361.741887573
0	64564	1514.701302871333	1361.8578321233
0	64568	1514.751807515005	1361.8291585625
0	64590	1515.454239714408	1362.5017741858
0	64646	1516.596264367896	1363.6397996989
0	64686	1517.671548874445	1364.5802825679
0	64708	1518.299907884522	1365.1096710375
0	64812	1520.482137682034	1367.138762399
0	64820	1520.74305101354	1367.349468657
0	64826	1520.876222108316	1367.3464622897
0	64900	1522.688948025286	1369.1098753797
0	64946	1523.823369796908	1370.1168864946
0	64994	1524.593437708423	1370.5005791171
0	65110	1527.695782540518	1373.5145616399
0	65286	1531.9840516535	1377.7755057188
0	65374	1534.399722222274	1380.1876894954
0	65584	1539.18164783942	1384.9337530617
0	65594	1539.43332450669	1385.0918745337
0	65632	1540.006228290336	1385.6506707971
0	65650	1540.278656539151	1385.8676182393
0	65654	1540.292229766442	1385.7463504748
0	65662	1540.489738509528	1385.8350737216
0	65706	1541.673836396455	1386.8471261687
0	65752	1542.602946701688	1387.7607975698
0	65820	1543.744067633008	1388.8552289303
0	65860	1544.740688548434	1389.809773623
0	65866	1544.851170466749	1389.9098571851
0	65992	1547.580925130205	1392.5421760193
0	66006	1547.847311496536	1392.7771459957
0	66030	1548.335014855445	1393.2045820269
0	66054	1548.855500503958	1393.6947989168
0	66138	1550.776718969792	1395.6112679644
0	66146	1550.879782533101	1395.4673403913
0	66180	1551.676013584791	1396.2607370201
0	66182	1551.731591157391	1396.0647726403
0	66208	1552.320738856551	1396.2594195677
0	66214	1552.502921075682	1396.3521559728
0	66222	1552.603498094444	1396.4414726211
0	66286	1554.504323898281	1398.3364296474
0	66294	1554.724272662581	1398.4511347147
0	66372	1556.637847253127	1400.1890817187
0	66424	1557.898828164277	1401.3177259186
0	66436	1558.363490429384	1401.7665187535
0	66500	1559.922485321627	1403.2772142645
0	66606	1563.080355648378	1406.3851417734
0	66646	1563.975587953545	1407.1912845306
0	66674	1564.556109932772	1407.7647328464
0	66682	1564.842275284321	1407.7862974424
0	66704	1565.295255569519	1408.2337761669
0	66738	1565.97762199464	1408.9156484605
0	66750	1566.352619270723	1409.2706025937
0	66862	1569.546251587877	1412.4464102842
0	66900	1570.442440355726	1413.3306954343
0	66914	1570.662265138186	1413.4311749385
0	66926	1570.893874019732	1413.475040746
0	66950	1571.615852790622	1414.0570772381
0	66976	1572.212352547134	1414.627983348
0	66992	1572.656324881451	1414.8511267422
0	67012	1573.306150248981	1415.3201308187
0	67020	1573.377319988786	1415.2825759016
0	67056	1573.937197818518	1415.7643613332
0	67068	1574.048219615686	1415.6887146632
0	67230	1577.845541773799	1419.4459931109
0	67270	1578.567174964591	1420.0781874626
0	67290	1579.018850067778	1420.2516497047
0	67348	1580.16183463063	1421.3326264661
0	67406	1581.59740907489	1422.6664895063
0	67518	1583.935122230692	1424.8924200517
0	67584	1585.772388486551	1426.7208809533
0	67600	1586.100189270473	1426.8868258664
0	67810	1591.177167514796	1431.6620017082
0	67994	1595.71111565948	1436.135837063
0	68052	1597.048132422733	1437.4109098845
0	68092	1598.089116411691	1438.2910350811
0	68120	1598.614361469482	1438.4699045275
0	68124	1598.722629886617	1438.5180998632
0	68126	1598.770979870358	1438.5583296209
0	68132	1598.890940348557	1438.5092193534
0	68208	1600.538609889535	1440.0424510887
0	68242	1601.310673355371	1440.7978976556
0	68286	1602.090323270092	1441.4705039402
0	68314	1602.651108845509	1441.8896261818
0	68380	1604.279131716574	1443.4425046361
0	68458	1606.33900476408	1445.4084288376
0	68480	1607.144862954827	1445.9238988324
0	68534	1608.204009726762	1446.9555634488
0	68566	1608.938448562198	1447.6611943542
0	68574	1609.092692750058	1447.6255963411
0	68620	1610.417135551465	1448.6594135871
0	68752	1613.647940596354	1451.7775929804
0	68810	1615.09863519149	1452.9810130743
0	68842	1615.975967829601	1453.8071848339
0	68920	1618.009001780982	1455.735665112
0	68950	1618.601984944233	1456.3151221757
0	69004	1619.655660533107	1457.359052885
0	69074	1621.420193937543	1458.9269560221
0	69086	1621.747487560513	1458.9533474346
0	69198	1624.268615397958	1461.4271112201
0	69246	1625.063675391963	1461.7848975447
0	69286	1625.915735544057	1462.4665403959
0	69310	1626.776544242295	1463.2385611476
0	69396	1629.037964047145	1465.4148260215
0	69404	1629.315001051012	1465.5801974734
0	69598	1633.906949544791	1470.1582620977
0	69682	1635.823233111449	1471.8830247305
0	69694	1636.093115466078	1472.11149263
0	69698	1636.311884896168	1472.3093463519
0	69700	1636.312841794193	1472.1478605952
0	69708	1636.594705996431	1472.2838530138
0	69758	1637.824953151553	1473.4413608678
0	69854	1640.28755556063	1475.7938078979
0	69884	1640.744173367736	1476.1557585039
0	69888	1640.813214075323	1476.2124169719
0	69904	1641.13651346647	1476.4896557399
0	69914	1641.353559432507	1476.5617696191
0	69952	1642.600152566904	1477.7970411136
0	69958	1642.687130539943	1477.815745982
0	70002	1643.867459129135	1478.9135060213
0	70030	1644.691407801099	1479.5065186567
0	70034	1644.754108605829	1479.3797139991
0	70042	1644.783461337605	1479.371932025
0	70058	1645.113270065528	1479.523915689
0	70130	1646.470822236409	1480.8551682697
0	70182	1647.402332255697	1481.739248105
0	70198	1647.826552213392	1482.126669323
0	70222	1648.373436594325	1482.3950976681
0	70246	1648.824084057358	1482.6704162626
0	70284	1649.691081790372	1483.5370423285
0	70348	1651.208184163509	1485.0023728439
0	70456	1653.728837945881	1487.5105986625
0	70476	1654.173716666088	1487.9386543671
0	70536	1655.471398825804	1489.1831517743
0	70538	1655.503455011906	1489.1923742244
0	70566	1656.112689279604	1489.6160373325
0	70590	1656.572071360531	1489.9816675588
0	70658	1658.356268604734	1491.7427407523
0	70754	1661.042211843837	1494.3840749637
0	70770	1661.68890079461	1494.8710493567
0	70772	1661.717770348187	1494.815512825
0	70910	1665.629871854616	1498.6473677183
0	70978	1666.993637316283	1499.9988529717
0	71050	1668.466156810511	1501.1587208139
0	71096	1669.406448796814	1501.870582654
0	71114	1670.025668014243	1502.4560684742
0	71188	1671.543116895511	1503.9459915525
0	71282	1673.726445673893	1506.1110791847
0	71368	1675.35481873342	1507.5504975143
0	71384	1675.710209806643	1507.8455216938
0	71394	1675.846280845477	1507.9791072878
0	71410	1676.324481782991	1508.4017036904
0	71432	1676.720669336371	1508.7606040162
0	71548	1679.377447848257	1511.3428914567
0	71552	1679.629379218951	1511.4201031836
0	71568	1680.225955838795	1512.0000876839
0	71624	1681.635917415156	1513.4016623361
0	71626	1681.649000443913	1513.0400834814
0	71640	1681.976509759948	1513.3361585391
0	71756	1684.893703683943	1516.0319276847
0	71760	1685.027257582364	1516.1558013754
0	71774	1685.466014621779	1516.5832078297
0	71788	1685.874394849273	1516.8830971702
0	71808	1686.326353242253	1517.3137703801
0	71840	1687.204629952479	1518.1346825476
0	71900	1688.392452325493	1519.3029840383
0	71910	1688.625367043721	1519.5325720905
0	71958	1689.747840049461	1520.6065499083
0	71974	1690.137176049787	1520.9240661072
0	71998	1690.650423152856	1521.3650330936
0	72088	1692.556497474163	1523.2275549293
0	72150	1693.866758271166	1524.5003187642
0	72236	1695.645362814028	1526.2340801097
0	72278	1696.390714902337	1526.7637357935
0	72284	1696.572035366362	1526.8836066706
0	72318	1697.621391327297	1527.9097047479
0	72326	1697.679873911358	1527.8485900438
0	72350	1698.200648322707	1528.2987928292
0	72356	1698.276585165488	1528.3427988111
0	72362	1698.438540676644	1528.4585425164
0	72372	1698.747070906352	1528.7451953291
0	72434	1700.184039000612	1530.164065703
0	72454	1700.613919720139	1530.5909127548
0	72462	1700.839333708452	1530.7066773142
0	72506	1701.720420815774	1531.562122687
0	72568	1703.270102156179	1533.1030070697
0	72610	1703.94402135581	1533.6796904287
0	72720	1706.619519868772	1536.2345803245
0	72760	1707.481390090579	1536.9829142125
0	72768	1707.851259502105	1537.1683841546
0	72770	1707.887874538496	1537.0563511296
0	72832	1709.475820604389	1538.5690623425
0	72846	1709.630208698256	1538.6724369587
0	72890	1710.797636473143	1539.7173357077
0	72944	1712.370179564491	1541.2570737285
0	72970	1713.078526920787	1541.9457951461
0	73020	1714.321762434035	1543.1534518459
0	73036	1714.525033051815	1543.300186776
0	73116	1716.817441170702	1545.5539185987
0	73158	1717.568587114412	1546.29736299
0	73186	1718.26379124238	1546.9442166579
0	73196	1718.462531275238	1546.9568647117
0	73246	1719.755114027494	1548.1017805544
0	73310	1721.352659247609	1549.4540906592
0	73334	1721.895907951122	1549.9517253542
0	73398	1723.746502484554	1551.7947828504
0	73466	1725.555413374643	1553.185909825
0	73536	1727.201963827849	1554.8014851782
0	73898	1735.249782619741	1562.8033225712
0	73930	1736.074018610529	1563.541264466
0	73982	1737.172410611657	1564.4283007277
0	74114	1741.376483251149	1568.4491047849
0	74150	1741.939009754475	1568.9032852281
0	74266	1744.200944512667	1571.1591363022
0	74354	1746.664979286249	1573.4118031066
0	74358	1746.786667402758	1573.4709650967
0	74374	1747.168953448487	1573.5251547676
0	74414	1748.315192142333	1574.533273803
0	74440	1748.720591502044	1574.8563200253
0	74458	1749.130211550604	1575.2646439849
0	74512	1750.302075389968	1576.2553847374
0	74528	1750.779194637072	1576.6999240123
0	74536	1751.058255821525	1576.9495952455
0	74568	1751.693584748652	1577.5057488804
0	74570	1751.811930409262	1577.5246052876
0	74578	1751.924983518021	1577.2928156862
0	74706	1755.18695026214	1580.4849645694
0	74734	1755.86589601104	1581.0818265169
0	74780	1757.198608896512	1582.3326120422
0	74806	1758.05589350019	1583.0748567784
0	74856	1759.292774219236	1584.1897502478
0	74894	1760.393034367055	1585.1924677903
0	75030	1763.522289130894	1588.0611936728
0	75046	1764.218746971699	1588.4399756462
0	75050	1764.315452838482	1588.3628028684
0	75066	1765.025132362752	1588.9788988834
0	75072	1765.200075292741	1589.0869447222
0	75086	1765.5887113199	1589.1078737137
0	75130	1766.517827161956	1589.9384588432
0	75132	1766.522877010852	1589.7730782956
0	75146	1766.731275405244	1589.9580765212
0	75162	1767.071783394949	1590.256941312
0	75168	1767.148990122085	1590.2746535901
0	75370	1771.381460778789	1594.4906312369
0	75386	1771.731369403643	1594.811688763
0	75396	1771.924122782386	1594.8511673158
0	75448	1773.263036841327	1596.0538478758
0	75512	1774.580982414656	1597.3376635906
0	75538	1775.146993681029	1597.6958567347
0	75558	1775.566790725351	1598.0960946491
0	75600	1776.662033394801	1599.1102202025
0	75638	1777.687257173614	1600.0693758556
0	75664	1778.304667667414	1600.649143027
0	75676	1778.668760151659	1600.9560163437
0	75718	1779.522894830149	1601.7383232938
0	75724	1779.644354696121	1601.8289534707
0	75752	1780.252167087022	1602.2229259282
0	75778	1780.900210433052	1602.6169780298
0	75808	1781.613722423178	1603.2925884469
0	75844	1782.264806640295	1603.8521481984
0	75858	1782.715385487346	1604.2609623505
0	75894	1783.524831004332	1605.0496610492
0	75902	1783.756984966482	1605.2113996553
0	75948	1784.923133147991	1606.1887328794
0	75966	1785.268349947457	1606.3681045229
0	76004	1786.024907778283	1607.1053917617
0	76054	1786.801801575752	1607.8813029956
0	76060	1786.90301337257	1607.9599543307
0	76070	1787.103956090748	1608.144011247
0	76154	1789.160438949033	1610.0821674596
0	76232	1791.091361137551	1611.9413420887
0	76280	1792.157769564064	1612.9403083435
0	76320	1792.814693960742	1613.5031522467
0	76374	1794.712802324089	1615.3365169635
0	76472	1796.936832917886	1617.339109176
0	76502	1797.556393237975	1617.5004765998
0	76596	1800.215383502892	1620.1081526596
0	76636	1801.189238607839	1621.0111057826
0	76642	1801.197627445241	1621.0076146111
0	76644	1801.285133597209	1620.8022066426
0	76746	1803.830085312817	1623.3346992801
0	76810	1806.150715467906	1625.6468766659
0	76832	1806.586083232681	1626.0381990215
0	76854	1807.033976492079	1626.4205569548
0	76858	1807.066376812202	1626.4443583013
0	76918	1808.661064277527	1627.9784240434
0	76956	1809.695050621715	1628.9959822143
0	77018	1810.984624553289	1630.2801636087
0	77046	1811.485513283762	1630.738364106
0	77072	1812.044747967909	1631.2370426028
0	77106	1813.002510393465	1632.0380613191
0	77220	1816.302109391638	1635.2217282122
0	77224	1816.437126626775	1635.1526465744
0	77292	1817.516354413136	1636.1381812353
0	77304	1817.845361424426	1636.4048830797
0	77312	1818.102800556463	1636.6193842311
0	77568	1824.06812564467	1642.3380284131
0	77600	1824.927898288964	1643.1238140089
0	77618	1825.280572167664	1643.4719417607
0	77628	1825.51504858652	1643.6155810822
0	77676	1826.081704295528	1644.090561602
0	77866	1830.466900829004	1648.3297521632
0	77894	1831.230264987924	1648.9115153835
0	77954	1832.735957701494	1650.377615683
0	77962	1832.855396722873	1650.1936066018
0	77972	1833.042300997013	1650.2689534942
0	78004	1833.671466021845	1650.8855598936
0	78030	1834.335835558332	1651.5466008535
0	78160	1838.06763684056	1655.2632140042
0	78268	1840.838083633427	1657.9827701304
0	78362	1842.716934138499	1659.6630866578
0	78400	1843.880714201743	1660.7897817263
0	78504	1846.221189449949	1662.9605798478
0	78604	1848.635454917531	1665.156276507
0	78656	1849.514557585085	1665.9119762044
0	78694	1850.399583575487	1666.7152648455
0	78732	1851.188255964796	1667.3368574884
0	78762	1852.302516637153	1668.310029249
0	78820	1853.548836603782	1669.4308804462
0	78876	1855.294979301854	1670.9870406697
0	78878	1855.298312814081	1670.9550880863
0	78934	1856.485323932965	1672.070283645
0	79022	1858.988228290244	1674.5413552528
0	79032	1859.114575569129	1674.6633960187
0	79124	1861.628796003119	1677.0978948036
0	79136	1861.912458366356	1677.2595998804
0	79184	1863.369153348867	1678.6797632448
0	79186	1863.433698704942	1678.488024857
0	79196	1863.585522856447	1678.6327795877
0	79198	1863.668569671571	1678.4970485941
0	79230	1864.21000221768	1679.0314027954
0	79258	1865.275898909504	1680.058793134
0	79384	1868.10635023177	1682.8197639637
0	79490	1871.238505441572	1685.9181638028
0	79508	1871.671535362465	1686.3176219822
0	79510	1871.720352084931	1686.09074016
0	79520	1872.032319197001	1686.3162876264
0	79554	1872.785736915866	1686.9546300665
0	79558	1872.845504674342	1686.9876300569
0	79580	1873.119643080892	1687.2304685588
0	79674	1876.010564185451	1690.1069065058
0	79786	1878.353955749626	1692.4363991438
0	79832	1879.257159805253	1693.3335423106
0	79966	1881.791394426523	1695.6265262739
0	80016	1883.01320408873	1696.8277404526
0	80198	1886.696256637235	1700.506973199
0	80216	1887.200069666043	1700.7480196687
0	80266	1888.089119527554	1701.5273121268
0	80272	1888.16477343166	1701.4178653197
0	80302	1888.908944699745	1702.1025069902
0	80356	1890.427561849542	1703.5202523093
0	80364	1890.770207080639	1703.8585556697
0	80402	1891.802527590736	1704.7765144793
0	80418	1892.113109174855	1705.074591208
0	80468	1893.283000292727	1706.2335118368
0	80498	1894.01770765622	1706.9201485308
0	80504	1894.259422687168	1706.945125742
0	80534	1895.073660227028	1707.738441447
0	80620	1897.440441009313	1710.0678912278
0	80644	1897.67878580606	1710.3047270708
0	80656	1898.038117446337	1710.5671597955
0	80698	1899.212007496335	1711.6799136408
0	80708	1899.326061118436	1711.6905731885
0	80734	1899.85463966069	1712.1983162594
0	80764	1900.507287502063	1712.8447361822
0	80766	1900.594722572066	1712.7065128991
0	80774	1900.710991462784	1712.7187166608
0	80780	1900.932507877077	1712.922766789
0	80782	1900.947426337129	1712.8914507077
0	80804	1901.299262663544	1713.1124975291
0	80810	1901.356219329988	1713.1527373648
0	80900	1903.929077774567	1715.6316670191
0	80926	1904.236701779867	1715.8633425786
0	80946	1904.669462063433	1716.2679837382
0	80988	1905.861222506232	1717.173660027
0	81002	1906.133585777942	1717.3805738099
0	81198	1910.709071127978	1721.8663887268
0	81238	1911.891527129408	1722.8723908118
0	81346	1915.002655730947	1725.9072218472
0	81372	1915.719964788266	1726.4814884588
0	81400	1916.699974597802	1727.3832386294
0	81402	1916.738263796191	1727.3861850993
0	81466	1918.026128923696	1728.5838167058
0	81468	1918.054096371225	1728.5860342314
0	81484	1918.283374919979	1728.7363272846
0	81532	1919.601440059791	1730.0410208084
0	81692	1923.547508220158	1733.9417885437
0	81802	1926.008343411239	1736.0696157454
0	81804	1926.05073228467	1735.9601886772
0	81826	1926.471891014312	1736.3008978552
0	81850	1927.048238751032	1736.8238415904
0	81876	1927.547955659358	1737.3071316289
0	81886	1927.775300256564	1737.3776766274
0	81986	1930.424995600017	1739.6964098364
0	81996	1930.538554228667	1739.526199338
0	82096	1932.63734024221	1741.6171231568
0	82112	1933.098768823139	1742.0167843012
0	82156	1934.181579550796	1743.0498238386
0	82192	1935.440794314751	1744.2951561738
0	82284	1937.461840058772	1746.2942068885
0	82340	1938.437775918091	1747.1894515514
0	82356	1938.991028509187	1747.7130910234
0	82430	1940.84390944034	1749.5538800735
0	82670	1947.527808423859	1755.8446835745
0	82696	1948.074058255903	1756.371534522
0	82854	1951.121209033592	1759.3949207319
0	82878	1951.558046099679	1759.5474701714
0	82946	1952.921904784946	1760.7878052907
0	83012	1955.068936935136	1762.8806464944
0	83018	1955.14722275826	1762.7001388262
0	83034	1955.516006575479	1763.0218280664
0	83060	1956.277373559879	1763.7387058512
0	83066	1956.315889294072	1763.6813491303
0	83210	1960.083930268085	1767.4346826999
0	83220	1960.195956796311	1767.5276908014
0	83234	1960.613746307898	1767.8341376694
0	83356	1964.3055169854	1771.3178043769
0	83418	1965.792281328933	1772.6965881162
0	83428	1965.997653895649	1772.5931740004
0	83434	1966.146195888685	1772.6763026118
0	83482	1967.274897838111	1773.7887743717
0	83604	1970.339776668907	1776.7839832288
0	83618	1970.772578959462	1777.1726394051
0	83648	1971.554032785177	1777.8894508429
0	83678	1972.514819962879	1778.7761814336
0	83706	1973.30038432649	1779.516123549
0	83758	1974.995269032337	1781.1821706123
0	83764	1975.151084291933	1781.0774256155
0	83786	1975.620783320412	1781.3621785725
0	83808	1976.0756177834	1781.7706160661
0	83826	1976.789350949766	1782.3965945092
0	83942	1979.597322573945	1785.190456212
0	83964	1980.076416213844	1785.6655498541
0	84006	1981.188121425773	1786.7105180039
0	84070	1982.957330218007	1788.4480431275
0	84130	1984.125802859687	1789.2884133157
0	84148	1984.585052852193	1789.6043958503
0	84160	1984.763727828255	1789.3859902432
[...]
0	148942	3505.974469945199	3154.1695781914
0	148990	3506.91075893724	3154.9218057786
0	149008	3507.079751376824	3154.8819062575
0	149062	3508.505343475707	3156.121012638
0	149072	3508.638356872642	3156.2363250586
0	149236	3512.807340029255	3160.4025996484
0	149282	3514.018165805148	3161.5710356336
0	149324	3515.178571048726	3162.710528936
0	149366	3516.274385910975	3163.6075395751
0	149380	3516.607713696429	3163.6861161668
0	149394	3516.882833074469	3163.8960308922
0	149396	3516.939503762697	3163.8659628942
0	149398	3516.954702173024	3163.6526584969
0	149420	3517.46625780937	3164.067360132
0	149440	3517.872605700581	3164.4636523793
0	149480	3518.620972709884	3165.1550491027
0	149490	3518.742570112951	3165.2248040153
0	149550	3519.981499630909	3166.3869672927
0	149568	3520.23022184466	3166.4009341949
0	149592	3520.596805950393	3166.668851479
0	149636	3521.819854034165	3167.8215411057
0	149650	3522.0840781289	3168.0639658969
0	149698	3522.990411466408	3168.8592515862
0	149822	3525.693227859146	3171.4948320609
0	149838	3525.919423382996	3171.6760211374
0	149852	3526.189418827411	3171.8962926301
0	149878	3526.722709961773	3172.2787008343
0	149956	3528.166169695161	3173.5048362326
0	150030	3530.392142206375	3175.6825657797
0	150070	3531.567383250198	3176.8556824333
0	150080	3531.755790368804	3176.994333268
0	150106	3532.219415632671	3177.4577764167
0	150122	3532.682210494727	3177.8597732708
0	150126	3532.747488597983	3177.747904286
0	150204	3534.839544816582	3179.7424124539
0	150256	3536.449086395481	3181.2799760327
0	150306	3537.371712434835	3182.1389965911
0	150314	3537.509572172121	3182.0240413119
0	150324	3537.693022763637	3182.1952433627
0	150436	3540.08035333071	3184.5266716971
0	150472	3541.087651107698	3185.5250747772
0	150576	3543.700118799863	3188.0390907545
0	150652	3545.660169002958	3189.9154686021
0	150656	3545.75834176309	3190.0044624285
0	150670	3545.989459998625	3190.2112304729
0	150734	3547.468578919973	3191.6328226021
0	150752	3547.747899996006	3191.8480920888
0	150784	3548.344376221822	3192.3686522972
0	150814	3549.059943066546	3192.9105589151
0	150962	3552.660167363605	3196.4822240679
0	150970	3552.727296849125	3196.523412515
0	151044	3554.194936713315	3197.9627294392
0	151064	3554.849723494513	3198.0972894208
0	151102	3555.983722194342	3199.1074383236
0	151172	3557.767977753341	3200.8270943897
0	151190	3558.192107355698	3201.2147196423
0	151236	3559.252597241033	3202.2328002524
0	151238	3559.351091708161	3201.8777537451
0	151434	3563.617819194394	3205.917325803
0	151462	3564.419192329178	3206.6185870487
0	151506	3565.815817921217	3207.9035845002
0	151704	3570.664546804805	3212.6594170972
0	151760	3571.630368830942	3213.522761196
0	151786	3572.734796055939	3214.5303191386
0	151936	3576.553527119212	3218.2072728872
0	152040	3578.746824336151	3220.3360889933
0	152104	3580.105811842881	3221.6377412226
0	152122	3580.599121539552	3221.9739574052
0	152194	3582.223863712716	3223.559317121
0	152378	3586.321189775351	3227.6010768271
0	152550	3590.068784477042	3231.294585085
0	152578	3590.741895954716	3231.938989437
0	152590	3591.052507397625	3232.201323933
0	152598	3591.191784541129	3232.3147926064
0	152606	3591.524572447855	3232.6044681076
0	152608	3591.561612922214	3232.6337298729
0	152642	3592.593502758985	3233.6499688187
0	152724	3594.661571161999	3235.5865462794
0	152728	3594.802016575476	3235.7139392171
0	152808	3596.608741518783	3237.4014002293
0	152862	3597.845304879028	3238.6181613919
0	152882	3598.349842684307	3238.8887674298
0	152916	3599.268420471458	3239.7895171861
0	152920	3599.28577150813	3239.7707978736
1	808	19.605309397693	19.515453358845
1	1134	27.425066606449	27.242888254454
1	1192	29.028407551315	28.767509085322
1	1872	44.58135115486	44.2653478402
1	2416	57.990368400772	57.576664443473
1	2612	63.152402950141	62.69018617647
1	3612	85.842093816377	85.322325123018
1	3694	88.009994073843	87.26787293828
1	4416	105.546634247178	104.77267749753
1	5262	127.07266244358	126.25034548344
1	6620	161.057206106603	160.16994451164
1	6724	163.828099300106	162.77361658511
1	6748	164.249936340953	163.13006536923
1	6774	164.648236813908	163.47847864128
1	7272	176.562725786968	175.13314220576
1	7408	179.659135952845	178.2275098128
1	7846	189.990996517563	188.51344556379
1	7916	191.810108243587	190.15380852347
1	8696	209.58560596415	207.77872781817
1	9618	233.509247555562	231.68724632421
1	9640	233.744356072201	231.71832341506
1	10308	249.928155241632	247.83795166722
1	10554	255.777424924552	253.52582114265
1	11028	267.466721685934	265.14162146192
1	11090	268.762550632734	266.32385651455
1	11226	271.959622532097	269.41878522647
1	11378	276.543735198633	273.9156657735
1	12434	301.618525594398	298.70101412147
1	12574	304.798506195305	301.81682525218
1	13738	332.76156738139	329.63106095568
1	14594	352.580914792156	349.42600351738
1	15226	367.55030507938	364.31136033404
1	15242	368.03591724898	364.78075885469
1	16010	384.392010989235	381.04215292723
1	16040	384.938858008666	381.49304514893
1	16486	395.408110950604	391.72940675344
1	16548	396.865271469688	393.07205337706
1	16924	405.390266514026	401.50209896305
1	17512	419.125288665302	415.11751033438
1	17790	424.928525018216	420.91029056471
1	18166	433.7547398345	429.73029385195
1	18422	439.505739747635	435.13127239664
1	19826	471.613063084867	467.21985312727
1	20428	486.658449492404	482.2416188642
1	21364	510.428265075186	505.99763157814
1	21760	520.011508777942	515.44197101191
1	23064	552.070327007004	547.45557903495
1	23256	557.06550457936	552.36631382796
1	23516	562.656634976032	557.51199454001
1	23530	562.839865105309	557.67179451741
1	23544	563.271254081911	558.00238156947
1	23690	566.531892911408	561.15714612746
1	23840	569.805366372764	564.34342800345
1	24236	579.584300794794	574.09315437215
1	25526	607.741130896175	602.19647800583
1	26778	634.631999150159	629.02455210171
1	27896	660.744493020544	655.07266787194
1	28030	664.203258979929	658.50340613047
1	28800	682.805572607768	677.00803335091
1	29128	690.388012984285	684.57877818644
1	29318	695.116402863236	689.20036084568
1	29498	699.42363731501	693.49272407053
1	29500	699.434864014347	693.35328723654
1	29854	707.992243293411	701.86466511983
1	29896	708.814906983543	702.57870187187
1	30084	713.632635142376	707.39506357286
1	30214	716.84584677809	710.59806072042
1	30272	718.021338937084	711.676042686
1	31228	740.163401548257	733.7061238606
1	32980	781.411064604122	774.59642807923
1	33094	783.878187023348	776.85301836838
1	33276	788.181552521941	781.15065117433
1	33534	793.988472873416	786.86472367611
1	33850	801.674668476042	794.49092459008
1	34084	806.058444133097	798.74027571992
1	34344	811.618827819551	804.29864039356
1	34848	824.215150022594	816.89096496669
1	35472	837.557507764691	830.1750348699
1	35712	842.12412368307	834.72884511175
1	36020	849.556930790939	842.11711027343
1	36196	853.535512432759	846.06057430631
1	36548	860.397132284989	852.8566295301
1	36740	865.714795712023	858.1616540935
1	36764	866.165986470106	858.49615749892
1	37130	874.846807914739	867.13870884867
1	37382	881.308172127507	873.38764934174
1	37670	887.130453566887	879.18549123631
1	38176	899.407976917262	891.34509563398
1	38588	908.504844413744	900.35835337726
1	39222	923.800735764712	915.62340324422
1	40194	946.938704892186	938.69024757797
1	40352	950.638881722015	942.31634851276
1	40500	953.490148303934	945.15775006383
1	40566	955.015562636485	946.42913394559
1	41082	967.363489360574	958.76838362144
1	41402	974.817137971663	965.95710663966
1	41556	977.97425004013	969.01004064271
1	43360	1019.575765780531	1010.427428136
1	44112	1036.900240397303	1027.6714230128
1	44414	1044.532526458222	1035.2575359841
1	44456	1045.193758192467	1035.9182970643
1	44698	1050.89604036749	1041.6047450887
1	45558	1072.87289300409	1063.4683343111
1	45782	1078.232124469585	1068.7960936105
1	46016	1083.460459135728	1073.9027774113
1	46482	1094.836477233361	1085.2447608351
1	46726	1099.919736267004	1090.000505551
1	46978	1106.48251909517	1096.5128539985
1	47086	1109.463428626631	1099.2673901723
1	47316	1114.415377981825	1104.1940975282
1	47840	1127.555385478546	1117.2201442286
1	48014	1131.647096198045	1121.2525925454
1	48138	1135.565014404725	1125.1108728126
1	48300	1139.378911319154	1128.5404690687
1	48856	1152.872583712048	1141.8660492412
1	49058	1157.361439950436	1146.2423772779
1	49084	1157.916564458122	1146.7687607379
1	50136	1181.379208867387	1170.1443515646
1	50296	1184.97384840236	1173.7014172153
1	50820	1197.312930707981	1185.7040624756
1	50962	1200.226568383051	1188.4885092238
1	51066	1202.571472141181	1190.7638330359
1	51358	1210.228534578851	1198.1083486378
1	52518	1237.167331177795	1224.9539049487
1	53278	1253.922604144775	1241.7072399375
1	53496	1259.429829458413	1247.1509524796
1	53704	1264.082191282259	1251.6953822836
1	53756	1265.69509238128	1253.2743169093
1	54600	1284.301228048447	1271.8320890078
1	54764	1287.64783689964	1275.0403999384
1	54852	1289.645154250035	1277.0231598909
1	55164	1296.799711334931	1284.166862266
1	55294	1299.701790620365	1287.0335191382
1	55654	1307.82134543591	1295.1433816783
1	55666	1308.002179183907	1295.239826579
1	55694	1308.700099910726	1295.8940445044
1	56168	1320.367525560305	1307.4812149554
1	56620	1330.551893226256	1317.5801746478
1	57012	1340.72521388178	1327.4062417554
1	57242	1346.182459319228	1332.8176699045
1	57734	1356.230930137544	1342.8559086613
1	57756	1356.580997822888	1343.1487301915
1	58408	1369.806251004101	1356.151491907
1	58506	1372.261688938355	1358.4852278917
1	59236	1388.464889716255	1374.6778674053
1	59640	1399.16555608296	1385.126605559
1	60048	1409.176160505731	1394.9532367032
1	60188	1412.263601999804	1398.0244911886
1	60314	1414.908305482777	1400.4341769426
1	60716	1425.396934347485	1410.7202149256
1	60788	1427.232992661085	1412.5524449479
1	60904	1430.312839737239	1415.6145594666
1	62156	1459.513119011218	1444.7438469478
1	62828	1476.053779456199	1461.2662535326
1	63878	1497.729571835421	1482.9288275409
1	63934	1498.799628172274	1483.8104909891
1	64144	1504.40097202057	1489.2471629272
1	64254	1506.756314027859	1491.5183168384
1	65034	1525.615782318598	1510.3744064505
1	65060	1526.368909166703	1511.1203657602
1	65526	1537.606233741095	1521.9527056507
1	65704	1541.656427323167	1525.9977079776
1	65712	1541.809167159681	1525.9491705405
1	66782	1567.220253259883	1551.3585798641
1	67432	1582.142191683827	1566.0868605643
1	67682	1588.207558681976	1572.1259946315
1	68716	1612.836535584248	1596.7537932106
1	69014	1619.755389720668	1603.5278679388
1	69376	1628.447836865851	1612.0893852476
1	69792	1638.746726764923	1622.2496460115
1	69814	1639.191295793631	1622.6269689885
1	69870	1640.550860849032	1623.9451361516
1	70238	1648.776776802252	1632.1691825578
1	70488	1654.402586074762	1637.7762399352
1	71346	1675.065265163968	1658.37665929
1	71434	1676.757755829301	1660.0437993848
1	71618	1681.536002503702	1664.6144429532
1	71894	1688.274731450443	1671.0899500137
1	71906	1688.561193344747	1671.2545322276
1	71922	1688.901489858444	1671.5768330072
1	72424	1700.12992170322	1682.735944875
1	72862	1710.106792292345	1692.6156672483
1	73506	1726.586852022461	1708.9756298878
1	74134	1741.655439661961	1724.0131207468
1	74240	1743.530927719235	1725.7934258333
1	74342	1746.351842624214	1728.5006810887
1	74530	1750.815053285016	1732.8871837841
1	74646	1753.972281410301	1735.8446947126
1	74834	1758.69745016753	1740.4308957635
1	75016	1763.087619908436	1744.7836768548
1	75074	1765.242441974774	1746.8577009158
1	75250	1769.000212515565	1750.5646849443
1	75380	1771.618775173431	1753.1593723149
1	76296	1792.368700328395	1773.8857450125
1	76412	1795.484731406197	1776.976616229
1	77146	1814.208412079917	1795.6796936979
1	77218	1816.122956161103	1797.5695518522
1	78140	1837.81481505734	1818.9725031892
1	78148	1837.909688944661	1818.9999526196
1	78466	1845.459017335531	1826.5234797341
1	78966	1857.492173385539	1838.4425219938
1	79400	1868.797077524196	1849.7180753672
1	79466	1870.551124660336	1851.4632070744
1	80002	1882.718854123113	1863.6249584409
1	81086	1908.397463400411	1889.297760482
1	81518	1919.336038998757	1900.1793463238
1	81580	1920.86368522247	1901.6400811751
1	81616	1921.595682309277	1902.3347112825
1	82106	1933.002303576554	1913.6221467394
1	82682	1947.79240357335	1928.0375772748
1	83550	1968.79929188577	1949.0375038201
1	83998	1980.884781632514	1960.9868003944
1	84056	1982.588805314597	1962.6257010033
1	84766	2001.050286273889	1980.974146408
1	84770	2001.233544553636	1980.9304206862
1	84970	2006.272407891913	1985.9448349223
1	84976	2006.328167612147	1985.9397113511
1	84978	2006.432707375342	1985.935460671
1	85350	2016.48400517538	1995.7498666539
1	85624	2023.985555773303	2003.2208567617
1	86044	2033.804620807315	2012.8978834501
1	86232	2038.426324206322	2017.4810180797
1	86416	2042.844359669066	2021.8506897037
1	86522	2045.143907732427	2024.0614875742
1	87212	2060.650111723229	2039.5284342622
1	87604	2069.778512894406	2048.5834986661
1	87700	2071.68043116955	2050.3862665119
1	88200	2083.015520369261	2061.6839793822
1	88612	2092.963825364451	2071.600326912
1	89318	2110.79930913308	2089.3803935977
1	90096	2129.012210833845	2107.4333233543
1	90108	2129.397710798788	2107.7982885423
1	90294	2133.220139124415	2111.5068111029
1	90540	2138.142588611053	2116.3683561283
1	90670	2141.393558354893	2119.5030145437
1	90948	2147.485174837864	2125.5285807187
1	91384	2158.056156594865	2136.0752906264
1	91558	2162.587036136191	2140.4507038739
1	91956	2172.486347367169	2150.323951092
1	92020	2173.855823617739	2151.5621765432
1	92536	2186.542559757066	2164.0366380172
1	92766	2191.478382153603	2168.8994376472
1	92936	2194.722280221178	2172.0795168542
1	93094	2197.88487851105	2175.2395153696
1	93454	2205.560555301434	2182.7908570821
1	93720	2212.400218092156	2189.499422636
1	93766	2213.335030413382	2190.3719520263
1	94414	2228.687520441314	2205.6919204524
1	94696	2235.008889339628	2211.8484817334
1	95538	2254.074904355761	2230.7770287542
1	96538	2277.749448505902	2254.3787205201
1	96822	2284.282988384727	2260.8798404875
1	96914	2286.467150970196	2262.9378218056
1	96990	2288.553779509599	2264.9740223517
1	97010	2288.900466873875	2265.1371833757
1	97082	2290.785282974891	2266.9780539377
1	97234	2294.390774538589	2270.3014819065
1	97328	2296.57137046881	2272.3439815272
1	97694	2304.87758654695	2280.6256777961
1	98160	2315.870713767115	2291.4804733696
1	99054	2338.141696211359	2313.619893188
1	100256	2366.543315341379	2341.9980467331
1	101144	2385.683250383613	2361.103429817
1	101472	2393.396169801051	2368.7825337629
1	101518	2394.754194495011	2370.1130056632
1	102032	2406.500470927261	2381.7461902475
1	102652	2421.095623012924	2396.3307736158
1	103344	2437.27359611223	2412.5022354286
1	103518	2440.982096680909	2416.2090793878
1	103892	2449.855616890693	2425.0014854954
1	104316	2460.213329707544	2435.3582700098
1	105028	2476.652677788277	2451.6867771151
1	105052	2477.265178781292	2452.1202791477
1	106362	2508.564515343862	2483.3865247221
1	106818	2518.985877392262	2493.6863177232
1	106988	2523.10651509485	2497.7869112063
1	107284	2529.966842372822	2504.6406292832
1	107398	2533.077674786467	2507.6796370488
1	107598	2538.204138522181	2512.7192442114
1	108470	2557.878429036196	2532.2386335575
1	108500	2558.368188762788	2532.5192376268
1	108596	2560.711740945945	2534.8215168233
1	108830	2566.040964986934	2539.8248487666
1	108928	2568.443899335993	2542.1600029154
1	109278	2576.566013351128	2549.9984529112
1	109700	2586.668096180372	2559.9399898642
1	110342	2602.597834444335	2575.7464400818
1	110366	2603.031823233929	2576.1114854176
1	110614	2609.247434377073	2582.2924212304
1	110618	2609.374405814662	2582.2332495037
1	110780	2612.826430672474	2585.6636647398
1	111284	2625.530610826739	2598.2716437014
1	111876	2640.617027004995	2613.3567273552
1	112586	2656.945166332788	2629.3189009499
1	112888	2663.885464525753	2635.8584041774
1	113018	2667.063663174906	2638.9715230923
1	113136	2669.58787804012	2641.3556703878
1	113234	2671.820750314093	2643.557142872
1	113404	2676.395009208688	2648.0854226348
1	113506	2678.635461580849	2650.2730282842
1	114070	2691.264260541068	2662.7291639064
1	114460	2700.650210716355	2672.102256058
1	115918	2735.78232950466	2707.2089737084
1	117042	2762.362845176657	2733.3947260537
1	117546	2775.623106089722	2746.6128876369
1	117968	2785.376932524352	2756.0427177749
1	118046	2787.541313009779	2758.0583552849
1	118056	2787.655730047435	2758.1282573886
1	118386	2795.355295691717	2765.7768239495
1	119198	2816.259917550132	2786.6291490425
1	119540	2824.97837628761	2795.3211807336
1	119622	2826.892325929882	2796.9744731956
1	120662	2851.532061857414	2821.612804464
1	121294	2865.90773710963	2835.9873303912
1	121614	2872.405908076263	2842.4092589895
1	121800	2876.216247760176	2846.0723782576
1	121938	2879.817818342839	2849.6580555223
1	122130	2883.733877266765	2853.5658282189
1	122364	2888.705046484404	2858.5081461655
1	122718	2896.819379586958	2866.6130918133
1	123160	2908.001211923043	2877.6817862727
1	123656	2919.106011381427	2888.6750969888
1	123820	2922.180689559302	2891.7216227645
1	124194	2930.535194313063	2900.0195380641
1	124352	2934.368827678501	2903.798605658
1	124566	2939.52671382578	2908.8749899722
1	124672	2942.274700292009	2911.4460144561
1	125148	2954.273418821705	2923.3970851276
1	125396	2960.318895656369	2929.4324085538
1	125510	2963.281378687817	2932.3633755824
1	125702	2967.690114310829	2936.7425210181
1	125962	2974.071109824891	2943.1094197437
1	125982	2974.69353821383	2943.6422152122
1	126862	2995.140566635487	2964.053347502
1	127048	2999.39473750756	2968.2771212181
1	128036	3022.073963481626	2990.8950032832
1	128638	3036.004650353868	3004.7107160167
1	128656	3036.630401624025	3005.1449830611
1	129010	3044.634870314627	3012.9740802872
1	129186	3048.797169464855	3017.127345713
1	130052	3068.948717336969	3037.2730407952
1	130348	3075.611140881398	3043.8275716488
1	130818	3086.575418404268	3054.6410276485
1	131264	3096.091240001395	3064.0066079663
1	131458	3100.404403174373	3068.2897386312
1	133008	3136.659971140119	3104.4984959516
1	133048	3137.587895519866	3105.4254467905
1	133978	3159.178566110038	3126.9842589958
1	134272	3165.515038890707	3133.0981233776
1	134748	3175.814785792297	3143.3362783508
1	134972	3180.867481234699	3148.3844099882
1	135210	3186.638022181317	3154.0293615864
1	135724	3199.026703456383	3166.2572010766
1	136288	3211.104619029828	3178.3271087644
1	137238	3232.270808300008	3199.429904822
1	137686	3243.816583743354	3210.7613702953
1	138078	3253.341429196613	3220.2670861439
1	138824	3270.074626574225	3236.8965590121
1	138942	3272.153215398242	3238.910656987
1	139322	3280.954680791506	3247.7085220973
1	140054	3297.152159421477	3263.7529158854
1	140244	3301.518109346634	3268.0475273823
1	140368	3304.448451979114	3270.9010446806
1	141204	3323.780519926708	3290.1282837177
1	141436	3328.859306404502	3295.1932748723
1	141830	3337.922992660058	3304.2175553706
1	143122	3369.004604424491	3335.2492979018
1	143288	3373.013237494365	3339.2405111
1	143290	3373.043804195122	3339.2503592825
1	143770	3384.082597844282	3350.0548289387
1	144976	3412.679988507052	3378.5737358995
1	145006	3413.321449266933	3378.9737950163
1	145284	3419.234955904093	3384.8259412325
1	145766	3431.440213931895	3396.9024030628
1	146198	3442.017827097671	3407.4290959799
1	146322	3444.879539405417	3410.2809963354
1	146514	3449.054312352382	3414.2213823182
1	146528	3449.351531316365	3414.3983299038
1	146856	3457.752460677238	3422.7595511697
1	147092	3463.083722235885	3427.9494343954
1	147572	3474.175980544509	3438.9102404942
1	147642	3475.913823026271	3440.6305834712
1	147736	3478.535834749852	3443.2516137511
1	148620	3498.488885083669	3463.0455084726
1	149214	3512.444680899616	3476.9400297441
1	149652	3522.091404913685	3486.5167511946
1	149792	3524.723219534962	3489.0591656756
1	150004	3529.723400327216	3493.7520389455
1	150588	3544.04788036379	3507.979317893
1	151282	3560.447244579514	3524.2929385985
1	151756	3571.522522543976	3535.1694226175
1	151806	3573.095095444872	3536.7248416556

